<edges>
    <edge fromnode="01" id="01to02" tonode="02" nolanes="1" speed="13.89" />
    <edge fromnode="02" id="02to01" tonode="01" nolanes="1" speed="13.89" />
    <edge fromnode="02" id="02to03" tonode="03" nolanes="1" speed="13.89" />
    <edge fromnode="03" id="03to02" tonode="02" nolanes="1" speed="13.89" />
    <edge fromnode="03" id="03to04" tonode="04" nolanes="1" speed="13.89" />
    <edge fromnode="04" id="04to03" tonode="03" nolanes="1" speed="13.89" />
    <edge fromnode="05" id="05to06" tonode="06" nolanes="1" speed="13.89" />
    <edge fromnode="06" id="06to05" tonode="05" nolanes="1" speed="13.89" />
    <edge fromnode="06" id="06to07" tonode="07" nolanes="1" speed="13.89" />
    <edge fromnode="07" id="07to06" tonode="06" nolanes="1" speed="13.89" />
    <edge fromnode="07" id="07to08" tonode="08" nolanes="1" speed="13.89" />
    <edge fromnode="08" id="08to07" tonode="07" nolanes="1" speed="13.89" />
    <edge fromnode="09" id="09to10" tonode="10" nolanes="1" speed="13.89" />
    <edge fromnode="10" id="10to09" tonode="09" nolanes="1" speed="13.89" />
    <edge fromnode="10" id="10to11" tonode="11" nolanes="1" speed="13.89" />
    <edge fromnode="11" id="11to10" tonode="10" nolanes="1" speed="13.89" />
    <edge fromnode="11" id="11to12" tonode="12" nolanes="1" speed="13.89" />
    <edge fromnode="12" id="12to11" tonode="11" nolanes="1" speed="13.89" />
    <edge fromnode="13" id="13to14" tonode="14" nolanes="1" speed="13.89" />
    <edge fromnode="14" id="14to13" tonode="13" nolanes="1" speed="13.89" />
    <edge fromnode="14" id="14to15" tonode="15" nolanes="1" speed="13.89" />
    <edge fromnode="15" id="15to14" tonode="14" nolanes="1" speed="13.89" />
    <edge fromnode="15" id="15to16" tonode="16" nolanes="1" speed="13.89" />
    <edge fromnode="16" id="16to15" tonode="15" nolanes="1" speed="13.89" />
    <edge fromnode="17" id="17to18" tonode="18" nolanes="1" speed="13.89" />
    <edge fromnode="18" id="18to17" tonode="17" nolanes="1" speed="13.89" />
    <edge fromnode="18" id="18to19" tonode="19" nolanes="1" speed="13.89" />
    <edge fromnode="19" id="19to18" tonode="18" nolanes="1" speed="13.89" />
    <edge fromnode="19" id="19to20" tonode="20" nolanes="1" speed="13.89" />
    <edge fromnode="20" id="20to19" tonode="19" nolanes="1" speed="13.89" />
    <edge fromnode="21" id="21to22" tonode="22" nolanes="1" speed="13.89" />
    <edge fromnode="22" id="22to21" tonode="21" nolanes="1" speed="13.89" />
    <edge fromnode="22" id="22to23" tonode="23" nolanes="1" speed="13.89" />
    <edge fromnode="23" id="23to22" tonode="22" nolanes="1" speed="13.89" />
    <edge fromnode="23" id="23to24" tonode="24" nolanes="1" speed="13.89" />
    <edge fromnode="24" id="24to23" tonode="23" nolanes="1" speed="13.89" />
    <edge fromnode="25" id="25to26" tonode="26" nolanes="1" speed="13.89" />
    <edge fromnode="26" id="26to25" tonode="25" nolanes="1" speed="13.89" />
    <edge fromnode="26" id="26to27" tonode="27" nolanes="1" speed="13.89" />
    <edge fromnode="27" id="27to26" tonode="26" nolanes="1" speed="13.89" />
    <edge fromnode="27" id="27to28" tonode="28" nolanes="1" speed="13.89" />
    <edge fromnode="28" id="28to27" tonode="27" nolanes="1" speed="13.89" />
    <edge fromnode="29" id="29to30" tonode="30" nolanes="1" speed="13.89" />
    <edge fromnode="30" id="30to29" tonode="29" nolanes="1" speed="13.89" />
    <edge fromnode="30" id="30to31" tonode="31" nolanes="1" speed="13.89" />
    <edge fromnode="31" id="31to30" tonode="30" nolanes="1" speed="13.89" />
    <edge fromnode="31" id="31to32" tonode="32" nolanes="1" speed="13.89" />
    <edge fromnode="32" id="32to31" tonode="31" nolanes="1" speed="13.89" />

    <edge fromnode="01" id="01to09" tonode="09" nolanes="2" speed="13.89" />
    <edge fromnode="09" id="09to01" tonode="01" nolanes="2" speed="13.89" />
    <edge fromnode="02" id="02to10" tonode="10" nolanes="2" speed="13.89" />
    <edge fromnode="10" id="10to02" tonode="02" nolanes="2" speed="13.89" />
    <edge fromnode="03" id="03to11" tonode="11" nolanes="2" speed="13.89" />
    <edge fromnode="11" id="11to03" tonode="03" nolanes="2" speed="13.89" />
    <edge fromnode="04" id="04to12" tonode="12" nolanes="2" speed="13.89" />
    <edge fromnode="12" id="12to04" tonode="04" nolanes="2" speed="13.89" />
    <edge fromnode="05" id="05to13" tonode="13" nolanes="2" speed="13.89" />
    <edge fromnode="13" id="13to05" tonode="05" nolanes="2" speed="13.89" />
    <edge fromnode="06" id="06to14" tonode="14" nolanes="2" speed="13.89" />
    <edge fromnode="14" id="14to06" tonode="06" nolanes="2" speed="13.89" />
    <edge fromnode="07" id="07to15" tonode="15" nolanes="2" speed="13.89" />
    <edge fromnode="15" id="15to07" tonode="07" nolanes="2" speed="13.89" />
    <edge fromnode="08" id="08to16" tonode="16" nolanes="2" speed="13.89" />
    <edge fromnode="16" id="16to08" tonode="08" nolanes="2" speed="13.89" />
    <edge fromnode="09" id="09to17" tonode="17" nolanes="2" speed="13.89" />
    <edge fromnode="17" id="17to09" tonode="09" nolanes="2" speed="13.89" />
    <edge fromnode="10" id="10to18" tonode="18" nolanes="2" speed="13.89" />
    <edge fromnode="18" id="18to10" tonode="10" nolanes="2" speed="13.89" />
    <edge fromnode="11" id="11to19" tonode="19" nolanes="2" speed="13.89" />
    <edge fromnode="19" id="19to11" tonode="11" nolanes="2" speed="13.89" />
    <edge fromnode="12" id="12to20" tonode="20" nolanes="2" speed="13.89" />
    <edge fromnode="20" id="20to12" tonode="12" nolanes="2" speed="13.89" />
    <edge fromnode="13" id="13to21" tonode="21" nolanes="2" speed="13.89" />
    <edge fromnode="21" id="21to13" tonode="13" nolanes="2" speed="13.89" />
    <edge fromnode="14" id="14to22" tonode="22" nolanes="2" speed="13.89" />
    <edge fromnode="22" id="22to14" tonode="14" nolanes="2" speed="13.89" />
    <edge fromnode="15" id="15to23" tonode="23" nolanes="2" speed="13.89" />
    <edge fromnode="23" id="23to15" tonode="15" nolanes="2" speed="13.89" />
    <edge fromnode="16" id="16to24" tonode="24" nolanes="2" speed="13.89" />
    <edge fromnode="24" id="24to16" tonode="16" nolanes="2" speed="13.89" />
    <edge fromnode="17" id="17to25" tonode="25" nolanes="2" speed="13.89" />
    <edge fromnode="25" id="25to17" tonode="17" nolanes="2" speed="13.89" />
    <edge fromnode="18" id="18to26" tonode="26" nolanes="2" speed="13.89" />
    <edge fromnode="26" id="26to18" tonode="18" nolanes="2" speed="13.89" />
    <edge fromnode="19" id="19to27" tonode="27" nolanes="2" speed="13.89" />
    <edge fromnode="27" id="27to19" tonode="19" nolanes="2" speed="13.89" />
    <edge fromnode="20" id="20to28" tonode="28" nolanes="2" speed="13.89" />
    <edge fromnode="28" id="28to20" tonode="20" nolanes="2" speed="13.89" />
    <edge fromnode="21" id="21to29" tonode="29" nolanes="2" speed="13.89" />
    <edge fromnode="29" id="29to21" tonode="21" nolanes="2" speed="13.89" />
    <edge fromnode="22" id="22to30" tonode="30" nolanes="2" speed="13.89" />
    <edge fromnode="30" id="30to22" tonode="22" nolanes="2" speed="13.89" />
    <edge fromnode="23" id="23to31" tonode="31" nolanes="2" speed="13.89" />
    <edge fromnode="31" id="31to23" tonode="23" nolanes="2" speed="13.89" />
    <edge fromnode="24" id="24to32" tonode="32" nolanes="2" speed="13.89" />
    <edge fromnode="32" id="32to24" tonode="24" nolanes="2" speed="13.89" />
    <edge fromnode="25" id="25to08" tonode="08" nolanes="2" speed="13.89" />
    <edge fromnode="08" id="08to25" tonode="25" nolanes="2" speed="13.89" />
    <edge fromnode="26" id="26to07" tonode="07" nolanes="2" speed="13.89" />
    <edge fromnode="07" id="07to26" tonode="26" nolanes="2" speed="13.89" />
    <edge fromnode="27" id="27to06" tonode="06" nolanes="2" speed="13.89" />
    <edge fromnode="06" id="06to27" tonode="27" nolanes="2" speed="13.89" />
    <edge fromnode="28" id="28to05" tonode="05" nolanes="2" speed="13.89" />
    <edge fromnode="05" id="05to28" tonode="28" nolanes="2" speed="13.89" />
    <edge fromnode="29" id="29to04" tonode="04" nolanes="2" speed="13.89" />
    <edge fromnode="04" id="04to29" tonode="29" nolanes="2" speed="13.89" />
    <edge fromnode="30" id="30to03" tonode="03" nolanes="2" speed="13.89" />
    <edge fromnode="03" id="03to30" tonode="30" nolanes="2" speed="13.89" />
    <edge fromnode="31" id="31to02" tonode="02" nolanes="2" speed="13.89" />
    <edge fromnode="02" id="02to31" tonode="31" nolanes="2" speed="13.89" />
    <edge fromnode="32" id="32to01" tonode="01" nolanes="2" speed="13.89" />
    <edge fromnode="01" id="01to32" tonode="32" nolanes="2" speed="13.89" />
</edges>

