<?xml version="1.0"?>

<!-- generated on Thu May 19 17:39:01 2011 by SUMO duarouter Version 0.12.2
<?xml version="1.0" encoding="iso-8859-1"?>

<configuration xmlns:xsi="http://www.w3.org/2001/XMLSchema-instance" xsi:noNamespaceSchemaLocation="http://sumo.sf.net/xsd/duarouterConfiguration.xsd">

    <input>
        <net-file value="../simulations/coimbra/coimbra.net.xml"/>
        <trip-defs value="trips.xml"/>
    </input>

    <output>
        <output-file value="../simulations/coimbra/coimbra.rou.xml"/>
    </output>

</configuration>
-->

<routes>
    <vehicle id="t0_0" depart="0.00">
        <route edges="15418141#2 20840986#0 20840986#1 58466494 14512229#4 15017114 15070523#0 15070523#1 15070523#2 12655183#0 12655183#1 12655183#2 15071686#3 15071686#4 15071686#5 15071686#6 15008467#0 15008467#1 15008467#2+58336191 15008467#3 15072231#0 15072231#1 15072231#2 15072231#3 15072231#4 15072231#5 15072231#6 17912245 17912050#1 17911985#5 58868164 -58868156#0"/>
    </vehicle>
    <vehicle id="t0_10" depart="0.00">
        <route edges="58338562 -58338562 -11156463#1 -11156463#0 15256889#0 15256984#0 15256984#1 18111653#0 18111653#1 18111653#2 14820193#2 14820193#3 14820193#4 14820193#5 14820611#0 14820611#1 14820611#2 14820611#3+58046364 14820611#4 15259853#3 15092493 14399609#5 14399609#6 14399609#0 13687767#0 13687767#1 13687767#2 14489662#0 14483018 14482746#3 14482746#0 14482746#1 -14482707#2 -14482707#1 -14482707#0 20130104#9 20130104#10 20130104#11 20130104#12 20130104#13 20130104#14 20130104#15 20130104#16 20130104#17 20130104#18 20130104#19 20130104#20 11412250#0 11412250#1 11481398#0 15228119 -14383645#6 -14383645#5 14384402 -14384297"/>
    </vehicle>
    <vehicle id="t0_100" depart="0.00">
        <route edges="-58866254 22088714#2 22088714#3 22088714#4 23284545#3 14455161 15116971#1 15116971#2 -58866256 -14033481#1 -14033481#0 -14007891#4 -14007891#3 -51298334#1 -51298334#0 51287163 57941426#0 -51283547#1 -51283547#0 51283547#0"/>
    </vehicle>
    <vehicle id="t0_101" depart="0.00">
        <route edges="-23164173#3 -23164173#2 -58156731#1 58156729 -58156728#0 -20130104#1 -20130104#0 14400407 61023889#3 61023889#4 -61023999#2 -61023999#1 -61023999#0 15218634#0 15218634#1 15218634#2 15218634#3 15218634#4 15218634#5 15218634#6 15218634#7 15218634#8 15218660 18111144#1 18111144#2 18111144#3 15218707 15218641#0 15218641#1 15218641#2 32228118#0 32228118#1 56997512 56997513 56997516 56997514#4 56997514#0 56997514#1 56997514#2 32228153 58094603#2 58094603#3 58094603#4 -19782792#2 -19782792#1 -19782792#0 23289371#2 23289371#3 23289371#0 -56978397#2 -56978397#1 56978397#1"/>
    </vehicle>
    <vehicle id="t0_102" depart="0.00">
        <route edges="57754997#5 57754997#6 57754997#7 17520974#0 20842115#0 20842115#1 37142747 37142748#0 37142748#1 37142748#2 37142748#3 37142748#4 37142748#5 37142748#6 37142748#7 37142748#8 37142748#9 37142748#10 14383323 20001256 20001345#0 14384441 14383645#6 -15228119 -11481398#0 -11412250#1 -11412250#0 -20130104#20 -20130104#19 -20130104#18 -20130104#17 -20130104#16 -20130104#15 -20130104#14 -20130104#13 -20130104#12 -20130104#11 -20130104#10 -20130104#9 -20130104#8 -20130104#7 -20130104#6+-58156921 -20130104#5 -20130104#4 -20130104#3 -20130104#2 -20130104#1 -20130104#0 14400407 61023889#3 61023889#4 -61023999#2 -61023999#1 -61023999#0 15218634#0 15218634#1 15218634#2 15218634#3 15218634#4 15218634#5 15218634#6 -56994861#2 -56994861#1 -56994861#0"/>
    </vehicle>
    <vehicle id="t0_103" depart="0.00">
        <route edges="58473621 -58473621 -11412250#1 -11412250#0 -20130104#20 -13862074#1 -13862074#0 -23275780#0 -23275781 -12690654#6 -12690654#5 -12690654#4 -12690654#3 -12690654#2 -12690654#1 -12690654#0 13858006#7 13858006#0 13858006#1 13858006#2 13858006#3 13858006#4 58360488 58360489#0 58360489#1 23103641#2 23103641#3 23103641#4 23103641#5 19787379#0 19787379#1 19787379#2 -40727086 -23269376 23200545#1 23200543#4 23200543#5 23200547#0 23269375#0 23269375#1 23269375#2 60786383 60786379#1"/>
    </vehicle>
    <vehicle id="t0_104" depart="0.00">
        <route edges="14007891#1 51298341 -51283558 -51283554#0 -15228018#2 -15228018#1 -15228018#0 -15228037#2 -51283721 -51283714#1 -51283714#0 51283687 -22493947#0 -11481398#4 -11481398#3 -11481398#2 14384297 14383969 20001352 20001279 18079523#0 18079523#1 18079523#2 23150704#0 23150704#1 57759400 57759422 37142748#3 37142748#4 37142748#5 37142748#6 37142748#7 37142748#8 15010909#0 15010909#1 15010909#2 15010909#3 15010909#4+57765792"/>
    </vehicle>
    <vehicle id="t0_105" depart="0.00">
        <route edges="23028325#1 -23028325#1 56722611#1 56722611#2 56722611#3 56722611#4 56476132 56721568#0 56721568#1 56721568#2 56721568#3 56721568#4 56721568#5 -15218641#6 -15218641#5 -15218641#4 -15218641#3 -15218641#2 -15218641#1 -15218641#0 15218684#0 15218684#1 18111144#5 18111144#6 18111144#7 15218658 -15218634#8 -15218634#7 -15218634#6 -15218634#5 -15218634#4 -15218634#3 -15218634#2 -15218634#1 -15218634#0 61023999#0 61023999#1 61024000 61023889#6 61023889#7 61023889#0 61023889#1 20130096 20130104#0 20130104#1 20130104#2 20130104#3 20130104#4 20130104#5 20130104#6+58156921 20130104#7 20130104#8 20130104#9 20130104#10 20130104#11 20130104#12 23284305 23284309 15092069#1 -14620463 -14513353#1"/>
    </vehicle>
    <vehicle id="t0_106" depart="0.00">
        <route edges="58913636#2 -58913636#2 -58913636#1 -58913636#0 -58910452#3 -58910452#2 -58910452#1 -58910452#0 15259853#1 15259853#2 15259853#3 15092493 14399609#5 14399609#6 14399609#0 13687767#0 13687767#1 13687767#2 60932680#0 60932680#1 60932680#2 60932680#3 -23321894#2 -23321894#1 -23321894#0 -12830068 12704221 23321888#0 23321888#1 23321888#2 14381434#7 14381434#8 14381434#0 14381434#1 14381434#2 15120190#0 15120190#1 -15260158#1 -15260158#0 -14033420 15116971#0 -14455161 23284545#4 -44623989"/>
    </vehicle>
    <vehicle id="t0_107" depart="0.00">
        <route edges="14382529#0 14382529#1 -12704379#0 14381434#6 14381434#7 14381434#8 14381434#0 14381434#1 14381434#2 15120190#0 15120190#1 15260158#2 15260158#3 14034373#0 14034373#1 14034373#2 14034373#3 14123728#0 14123728#1 15070264 -13790916 12654866#0"/>
    </vehicle>
    <vehicle id="t0_109" depart="0.00">
        <route edges="17955680#0 17955680#1 58473614#0 58473614#1 -58473612#1 -58473612#0 -15229200#6 -15229200#5 -15229200#4 -15229200#3 -15229200#2 -22493947#3 -22493947#2 -22493947#1 -22493947#0 -11481398#4 -11481398#3 -11481398#2 -11481398#1 -11481398#0 -11412250#1 -11412250#0 -20130104#20 -20130104#19 -20130104#18 -20130104#17 -20130104#16 -20130104#15 -20130104#14 -20130104#13 23284305 23284309 15092069#1 15092069#2 15092069#3 23265003 23265072#0 -23274771#2 -23274771#1 -23274771#0 23274775"/>
    </vehicle>
    <vehicle id="t0_110" depart="0.00">
        <route edges="-21767557#1 -21767557#0 21767634 19999786#2 19999786#3 19999786#4 19999786#5 19999786#6 23095484 23095459#5 23095459#0 23093334 58336178 58336165#6 58336165#0 58336165#1 58336165#2 58336180 58336151 15072231#3 15072231#4 15072231#5 15072231#6 15072231#7 17911828#4 17911828#5 17911828#6 17911828#0 17911665 19353257#0 19353257#1 21845624#1 21845624#2 19996174 58470120 22330778 22330766 21109272#0 15229455#0 15229455#1 37142747 37142748#0 37142748#1 37142748#2 37142748#3 37142748#4 17964560#0 17964560#1 17964560#2 17964885#0 17964885#1 37143385#1 23058094#0 -58474196 -23178221#2 -59524188#2"/>
    </vehicle>
    <vehicle id="t0_111" depart="0.00">
        <route edges="-23274804 23274787#0 -23274795#0 60974342 -23274771#0 23274775 -12690654#3 -12690654#2 -12690654#1 -12690654#0 13858006#7 13858006#0 13858006#1 13858022 23103965#1 23103831#1 19787236 19787087#0 57765841 18076151#1 15521043#2 23207851#0 57765831#0"/>
    </vehicle>
    <vehicle id="t0_112" depart="0.00">
        <route edges="23190132 -23190126#1 -23190126#0 -17737018#9 18076714 15521043#6 15521043#0 15520967#0 15520967#1 19787234 19787235#0 19787318 13858009#1 13858009#2 13858009#3 13858009#4 13858009#5 13858018 13858006#4 13858006#5 13858006#6 12690654#0 12690654#1 12690654#2 12690654#3 12690654#4 12690654#5 12690654#6 23275781 23275780#0 23275780#1 23275780#2 -20130104#18 -20130104#17 -20130104#16 -20130104#15 -20130104#14 -20130104#13 -20130104#12 -20130104#11 -20130104#10 -20130104#9 -20130104#8 -20130104#7 -20130104#6+-58156921 -20130104#5 -20130104#4 -20130104#3 20327665 -19804224#3 -19804224#2 -19804224#1 -19804224#0 58257177#6 58257177#7 58257177#8 58257177#9 14489690#0 58232999#0 -58233000+58232999#1"/>
    </vehicle>
    <vehicle id="t0_113" depart="0.00">
        <route edges="14400407 61023889#3 61023889#4 61023889#5 61023889#6 15011657 14400199#3 14400199#4 14400199#5 15012302#0 15012302#1 15012302#2 15012302#3 14399609#3 15092501 15259853#5 15259853#6 15259853#7 15259853#0 15259853#1 15244343 14820193#0 14820193#1 14820193#2 15244178#0 15244178#1 15013099#4 15013099#5 15013099#6 15013711#0 15013711#1 15013711#2 15013711#3 15072481 15116633#0 15116633#1 19999786#5 19999786#6 19999786#7 19999786#0 19999786#1 19999786#2 19999786#3 12717939#0 -58318329#1 -58318329#0 -15092046 15092046"/>
    </vehicle>
    <vehicle id="t0_114" depart="0.00">
        <route edges="-58094603#3 58094603#3 58094603#4 -19782792#2 60116132 -60116132"/>
    </vehicle>
    <vehicle id="t0_115" depart="0.00">
        <route edges="23027580 23027781#2 23027999 23028000#0 -56997511#1 -56997511#0 23329579#0 23329579#1 -56995249#1 -56995249#0 -15218641#0 15218684#0 15218684#1 18111144#5 18111144#6 18111144#7 18111144#0 18111144#1 15218662#0 15218662#1 15218662#2 15218662#3 18612444#4 18612444#5 18612444#6 15219592#0 15219592#1 15219592#2 19787379#2 19787379#3 19787379#4 19787362#0 19787362#1 19787362#2 19787362#3 19787362#4 19787362#5 23103831#0 23103831#1 19787236 19787087#0 19787087#1 19787087#2 19787087#3 19787087#4 19787087#5 19787087#6 19787095"/>
    </vehicle>
    <vehicle id="t0_116" depart="0.00">
        <route edges="57043431 58360480 58360481#0 58360481#1 23103641#3 23269550 19787362#4 23178598 13858006#6 12690654#0 12690654#1 12690654#2 12690654#3 12690654#4 12690654#5 12690654#6 23275781"/>
    </vehicle>
    <vehicle id="t0_118" depart="0.00">
        <route edges="-23376860#3 -23376800#0 15020324#0 15020324#1 -13791061#0 13791159 12655183#2 15071686#3 15071686#4 15071686#5 15071686#6 15008467#0 15008467#1 15008467#2+58336191 15008467#3 15072231#0 15072231#1 15072231#2 15072231#3 15072231#4 15072231#5 15072231#6 15072231#7 17911828#4 17911828#5 17911828#6 17911828#0 17911665 19353257#0 21846562#0 21846562#1 21846562#2 15021612#2 15021273#0 23150459#1 23150459#2 -11406557#0 -23274765#2 -23274765#1"/>
    </vehicle>
    <vehicle id="t0_119" depart="0.00">
        <route edges="-58474201#0 58474201#0 -58474200 -58474197#2 -58474197#1 -58474197#0 -57922615#0 -23207851#1 -23207851#0 15521043#3 15521043#4 15521043#5 15521043#6 15521043#0 15520967#0 15520967#1 19787234 19787235#0 19787235#1 23103641#0 23103641#1 23103641#2 23103641#3 23103641#4 23103641#5 19787379#0 19787379#1 19787379#2 19787379#3 19787379#4 19787362#0 19787362#1 23188776 -23188775#2 60759069#0 60759069#1"/>
    </vehicle>
    <vehicle id="t0_12" depart="0.00">
        <route edges="12703816#2 -12703816#2 -12703816#1 -12703816#0 -12703825#1 -12703825#0 -12704221 12830068 -23321910#1 -12704648#2 -12704648#1 -12704648#0 20130104#16 20130104#17 20130104#18 -23275780#2 -23275780#1 -23275780#0 -23275781 -12690654#6 -12690654#5 -12690654#4 -12690654#3 -12690654#2 -12690654#1 -12690654#0 13858006#7 13858006#0 13858006#1 13858022 23103965#1 23103831#1 19787236 19787087#0 19787087#1 19787087#2 58473869#0"/>
    </vehicle>
    <vehicle id="t0_120" depart="0.00">
        <route edges="21109704#1 22330778 22330766 21109272#0 15229455#0 15229455#1 37142747 37142748#0 37142748#1 37142748#2 37142748#3 37142748#4 37142748#5 37142748#6 37142748#7 37142748#8 37142748#9 37142748#10 14383323 20001256 20001345#0 14384441 14383645#6 -15228119 -11481398#0 -11412250#1 -11412250#0 -20130104#20 -20130104#19 -20130104#18 -20130104#17 -20130104#16 -20130104#15 -20130104#14 -20130104#13 -20130104#12 -20130104#11 -20130104#10 -20130104#9 -20130104#8 -20130104#7 -20130104#6+-58156921 -20130104#5 -20130104#4 -20130104#3 -20130104#2 -20130104#1 -20130104#0 14400407 61023889#3 61023889#4 -61023999#2 -61023999#1 -61023999#0 15218634#0 15218634#1 15218634#2 15218634#3 15218634#4 15218634#5 15218634#6 15218634#7 15218634#8 15218660 18111144#1 18111144#2 18111144#3 18111144#4 18111144#5 15218665 12699523#2 12699523#3 12699523#4 -56994848#1 -56994848#0 -56994851 -23027793 23041143#0"/>
    </vehicle>
    <vehicle id="t0_121" depart="0.00">
        <route edges="23289371#3 23289371#0 23289371#1 23289371#2 -23104075#2 -23104075#1 -23104075#0 23104103#0 23104103#1 13858009#5 13858018 13858006#4 13858006#5 13858006#6 12690654#0 12690654#1 12690654#2 12690654#3 12690654#4 12690654#5 12690654#6 23275781 23275780#0 23275780#1 23275780#2 -20130104#18 -20130104#17 -23252378#2 -14202973 14202915#0 -14368725"/>
    </vehicle>
    <vehicle id="t0_122" depart="0.00">
        <route edges="57043439#3 57043440 19787357#2 19787357#3 19787357#4+58361028 19787357#5 19787357#6 19787357#7 18612444#8 18612444#0 18612444#1 18612444#2 15219559#0 15219559#1 15219559#2 15219559#3 18111144#3 18111144#4 18111144#5 18111144#6 18111144#7 15218658 -15218634#8 -15218634#7 -15218634#6 -15218634#5 -15218634#4 -15218634#3 -15218634#2 -15218634#1 -15218634#0 61023999#0 61023999#1 61024000 61023889#6 61023889#7 61023889#0 61023889#1 20130096 20130104#0 20130104#1 20130104#2 20130104#3 20130104#4 20130104#5 20130104#6+58156921 -20130104#6+-58156921"/>
    </vehicle>
    <vehicle id="t0_123" depart="0.00">
        <route edges="-58470117 21847093#2+58470117 21847093#3 58470816 19896358 21342054 21847277#0 21847277#1 21847497#0 21847497#1 21845624#6 21845624#0 21845624#1 21845624#2 21845624#3 17911514#0 17911514#1 17911514#2 17911514#3 17911195#3 17911195#4 17911195#5 17911431#0 17911431#1 17911431#2 17955447#0 17955447#1 17955447#2 58435509 15229200#1 -22493947#3 -22493947#2 -22493947#1 -22493947#0 -11481398#4 -11481398#3 -11481398#2 -11481398#1 -11481398#0 -11412250#1 -11412250#0 -20130104#20 -20130104#19 -20130104#18 -20130104#17 -20130104#16 -20130104#15 -20130104#14 -20130104#13 -20130104#12 -20130104#11 -20130104#10 -20130104#9 -20130104#8 -20130104#7 -20130104#6+-58156921 -20130104#5 -20130104#4 -20130104#3 -20130104#2 -20130104#1 -20130104#0 14400407 61023889#3 61023889#4 -61023999#2 -61023999#1 -61023999#0 15218634#0 15218634#1 15218634#2 15218634#3 15218634#4 15218634#5 15218634#6 15218634#7 15218634#8 15218660 18111144#1 18111144#2 18111144#3 18111144#4 18111144#5 15218665 12699523#2"/>
    </vehicle>
    <vehicle id="t0_124" depart="0.00">
        <route edges="58866448#0 58866448#1 58866458 58866714 58866715 58868098 58868100 58868106#1 -58868119 58868131 15072231#6 15072231#7 17911828#4 17911828#5 17911828#6 17911828#0 17911665 19353257#0 19353257#1 21845624#1 21845624#2 19996174 58470120 22330778 22330766 21109272#0 21109272#1 21109272#2 57754997#9 57754997#0 17973551"/>
    </vehicle>
    <vehicle id="t0_125" depart="0.00">
        <route edges="18612444#6 18612444#7 18612444#8 18612444#0 18612444#1 18612444#2 15219559#0 15219559#1 15219559#2 15219559#3 18111144#3 18111144#4 18111144#5 18111144#6 18111144#7 15218658 -15218634#8 -15218634#7 -15218634#6 -15218634#5 -15218634#4 -15218634#3 -15218634#2 -15218634#1 -15218634#0 61023999#0 61023999#1 61024000 61023889#6 61023889#7 61023889#0 61023889#1 20130096 20130104#0 20130104#1 20130104#2 20130104#3 20130104#4 20130104#5 20130104#6+58156921 20130104#7 20130104#8 14482707#0 14482707#1 14482707#2 14482746#2 14482746#3 14482746#0 -14482793#2 -14482793#1 -14482793#0 -23321894#2 -23321894#1 -23321894#0 -12830068 12704221 12703825#0 12703825#1 12703816#0 12703816#1 15092581#1 -15092581#1"/>
    </vehicle>
    <vehicle id="t0_126" depart="0.00">
        <route edges="-23150787#5 -23150787#4+58360374 -23150787#3 -23150806 20840291#2 23179103 58360372 15013711#2 15420766 -15420223 -23178571#4 15019342#0 15019342#1 14619376#0 23086446#0 23086446#1"/>
    </vehicle>
    <vehicle id="t0_127" depart="0.00">
        <route edges="-11412629#0 -11412629#4 14382138#0 14382138#1 14381434#5 14381434#6 14381434#7 14381434#8 14381434#0 14381434#1 14381434#2 15120190#0 15120190#1 15260158#2 15260158#3 14034373#0 14034373#1 14034373#2 14034373#3 14123728#0 14123728#1 15070192#0 15417954 15070704 15070523#2 12655183#0 12655183#1 12655183#2 15071686#3 15071686#4 15071686#5 15071686#6 15008467#0 -58336190#1"/>
    </vehicle>
    <vehicle id="t0_128" depart="0.00">
        <route edges="17955680#3 14007697#1 -58473615 58473613#2 58473613#3 58473613#4 -58473612#1 -58473612#0 15229200#7 15229200#8 15229200#9 15229200#10 17911195#0 17911195#1 17910979 19896358 21342054 21847277#0 21847277#1 21847692 21846562#2 15021612#2 15021273#0 -15021273#0"/>
    </vehicle>
    <vehicle id="t0_129" depart="0.00">
        <route edges="20937805 20329230#2 20329230#3 20329230#4 20329230#5 20329230#6 20329232#0 20329232#1 20329232#2 20329232#3 12718023#4 12718023#5 12718023#6 12717956 15259853#7 15259853#0 15259853#1 15244343 14820193#0 14820193#1 14820193#2 15244178#0 15244178#1 15013099#4 15013099#5 15013099#6 15013711#0 15013711#1 15013711#2 15013711#3 15072481 15116633#0 15116633#1 19999786#5 19999786#6 23095484 23095459#5 23095459#0 23093334 58336178 58336165#6 58336165#0 58336165#1 58336165#2 58336180 58336151 15072231#3 15072231#4 15072231#5 15072231#6 15072231#7 17911828#4 17911828#5 17911828#6 17911828#0 17911665 19353257#0 21846562#0 67265635#0 67265635#1 67265635#2 67265637#0 67265637#1 67265637#2 67265637#3 67290189#0 67290189#1"/>
    </vehicle>
    <vehicle id="t0_13" depart="0.00">
        <route edges="23321910#0 23321910#1 23321894#0 23321894#1 23321894#2 14482793#0 14482793#1 14482793#2 14482746#1 -14482707#2 -14482707#1 -14482707#0 -20130104#8 -20130104#7 -20130104#6+-58156921 -20130104#5 -20130104#4 -20130104#3 -20130104#2 -20130104#1 -20130104#0 14400407 61023889#3 61023889#4 -61023999#2 -61023999#1 -61023999#0 15218634#0 15218634#1 15218634#2 15218634#3 15218634#4 15218634#5 15218634#6 15218634#7 15218634#8 15218660 18111144#1 15218662#0 15218662#1 15218662#2 15218662#3 18612444#4 18612444#5 18612444#6 18612444#7 18612444#8 18612444#0 58055723#0 58055723#1 58055723#2 32228140#0 32228140#1 32228140#2 57038400"/>
    </vehicle>
    <vehicle id="t0_130" depart="0.00">
        <route edges="-23027864#1 -23027864#0 20839433#0 20839433#1 20839433#2 20839433#3 20839433#4 20839433#5 58928540 15259853#0 15259853#1 15259853#2 15259853#3 15092493 14399609#5 14399609#6 14399609#0 14399609#1 14399529#0 14399529#1 14399529#2 14399529#3 14400199#0 14400199#1 15011817#0 15011817#1 61023889#1 61023889#2 61023889#3 61023889#4 -61023999#2 -61023999#1 -61023999#0 15218634#0 15218634#1 15218634#2 15218634#3 15218634#4 15218634#5 15218634#6 -15218634#6"/>
    </vehicle>
    <vehicle id="t0_131" depart="0.00">
        <route edges="15011817#1 61023889#1 61023889#2 61023889#3 61023889#4 61023889#5 61023889#6 15011657 14400199#3 14400199#4 14400199#5 15012302#0 15012302#1 15012302#2 15012302#3 14399609#3 15092501 15259853#5 15259853#6 15259853#7 15259853#0 15259853#1 15244343 14820193#0 14820193#1 14820193#2 15244178#0 15244178#1 15013099#4 15013099#5 15013099#6 15013711#0 15013711#1 15013711#2 15420766 -15420223 -23178571#4 15019342#0 15019342#1 23179170#0 23179170#1 23179170#2 58336084#0 58336084#1 -23086246"/>
    </vehicle>
    <vehicle id="t0_132" depart="0.00">
        <route edges="-23274761#3+23274761#2 -23274761#2+23274761#3 -23274761#1 -23274761#0 -23274757#0 23274765#2 11406557#0 -23150459#2 -23150459#1 -15021273#0 15021612#3 15021612#4 15021612#0 19353475#0 19353475#1 21270078 21845624#2 21845624#3 21845624#4 21847093#0 21847093#1 21847093#2+58470117 21847093#3 58470816 14179463#0 14179463#1 14179463#2 14179463#3 14179463#4 19787426 17911828#2 15008658#0 15008658#1 15008658#2 19995755#0 58466469#1 15008658#4 15071686#1 15072225#0 15072225#1 15070523#4 15070523#5 15070523#0 12655141 13790845 15070264 12654914#0 12654914#1 62789514#0 62789514#1 14619376#6 -14619376#6"/>
    </vehicle>
    <vehicle id="t0_133" depart="0.00">
        <route edges="-58868106#1 58868106#1 -58868119 58868131 15072231#6 15072231#7 17911828#4 17911828#5 17911828#6 17911828#0 17911665 19353257#0 19353257#1 21845624#1 21845624#2 21845624#3 17911514#0 17911514#1 17911514#2 17911514#3 17911195#3 17911195#4 17911195#5 17911431#0 17911431#1 17911431#2 17955447#0 17955447#1 17955447#2 58435509 15229200#1 -22493947#3 -22493947#2 -22493947#1 -22493947#0 -11481398#4 -11481398#3 -11481398#2 -11481398#1 -11481398#0 -11412250#1 -11412250#0 -20130104#20 -13862074#1 -13862074#0 -23275780#0 -23275781 -12690654#6 -12690654#5 -12690654#4 -12690654#3 -12690654#2 -12690654#1 -12690654#0 13858006#7 13858006#0 13858006#1 13858006#2 13858006#3 13858006#4 58360488 58360489#0 58360489#1 23103641#2 23103641#3 23103641#4 23103641#5 19787379#0 19787357#0 57043441 -57043439#3 -57043439#2 -57043439#1 -57043439#0 57043434 57043427#4 57043427#5 57043427#6 57043427#0 57043437 -57043428#1 -57043428#0 -18611279"/>
    </vehicle>
    <vehicle id="t0_134" depart="0.00">
        <route edges="-18076714 17737018#9 23190126#0 23190133#1 -23190133#1"/>
    </vehicle>
    <vehicle id="t0_136" depart="0.00">
        <route edges="-57043428#1 -57043428#0 -18611279 -58055723#3 -58055723#2 -58055723#1 58055730 18612444#2 15219559#0 15219559#1 15219559#2 15219559#3 18111144#3 18111144#4 18111144#5 18111144#6 18111144#7 15218658 -15218634#8 -15218634#7 -15218634#6 -15218634#5 -15218634#4 -15218634#3 -15218634#2 -15218634#1 -15218634#0 61023999#0 61023999#1 61024000 61023889#6 15011657 14400199#3 14400199#4 14400199#5 15012302#0 15012302#1 15012302#2 15012302#3 14399609#3 15092501 15259853#5 15259853#6 15259853#7 15259853#0 58910452#0 58910453#0 58910453#1 58910455"/>
    </vehicle>
    <vehicle id="t0_137" depart="0.00">
        <route edges="18079956#3 18079956#4 58361036 58361033#5 58361033#6 58361033#7 58361033#8 58361033#9 -18611230#2 -18611230#1 -18611230#0 57043428#0 -57043428#0"/>
    </vehicle>
    <vehicle id="t0_138" depart="0.00">
        <route edges="17520974#0 17520974#1 21109307 22330780#0 22330780#1 22330781#0 18958843 21269377#0 21269377#1 19787426 17911828#2 15008658#0 15008658#1 15008658#2 19995755#0 19995755#1 19995755#2 19995755#3 19995755#4 19995755#5 58336168 58336165#4 58336174 58336187 23095459#2 23095459#3 23095446 19999786#1 19999786#2 19999786#3 12717939#0 12717939#1 12717939#2 12717939#3 12717939#4 12717939#5 12717939#6 12717939#7 14796186 12695353#0 12695353#1 12695353#2 15013099#0 15013099#1 15013099#2 14821072#0 14821072#1 14820193#4 14365612"/>
    </vehicle>
    <vehicle id="t0_139" depart="0.00">
        <route edges="-58928541#0 58928538#1 58928539 58928540 15259853#0 15259853#1 15244343 14820193#0 14820193#1 14820193#2 15244178#0 15244178#1 15013099#4 15013099#5 15013099#6 15013711#0 15013711#1 15013711#2 15013711#3 15072481 15116633#0 15116633#1 19999786#5 19999786#6 23095484 23095459#5 23095459#0 23095459#1 23095459#2 -58336141 58336144 23936557#1 23936582#0 23936582#1"/>
    </vehicle>
    <vehicle id="t0_14" depart="0.00">
        <route edges="15071686#5 15071686#6 15071686#0 15071686#1 15072225#0 15072225#1 15070523#4 15070523#5 15070523#0 12655141 13790845 15070264 12654914#0 12654914#1 12654914#2 12654914#3 12654914#4 -12654914#4"/>
    </vehicle>
    <vehicle id="t0_140" depart="0.00">
        <route edges="20329232#1 20329232#2 20329232#3 12718023#4 12718023#5 12718023#6 12717956 15259853#7 15259853#0 15259853#1 15259853#2 15259853#3 15092493 14399609#5 14399609#6 14399609#0 13687767#0 13687767#1 13687767#2 60932680#0 60932680#1 60932680#2 60932680#3 -23321894#2 -23321894#1 -23321894#0 -12830068 12704221 23321888#0 23321888#1 23321888#2 14381434#7 14381434#8 14381434#0 14381434#1 14381434#2 15120190#0 15120190#1 -15260158#1 -15260158#0 -14033481#3 -14033481#2 -14033481#1 -14033481#0 -14007891#4 -14007891#3 -14007891#2 51298341"/>
    </vehicle>
    <vehicle id="t0_141" depart="0.00">
        <route edges="19782792#1 -19782792#1 -19782792#0 23289371#2 -23104075#2 -23104075#1 -23104075#0 23104103#0 23104103#1 13858009#5 13858018 13858006#4 13858006#5 13858006#6 12690654#0 12690654#1 12690654#2 12690654#3 12690654#4 12690654#5 12690654#6 23275781 23275780#0 23275780#1 23275780#2 -20130104#18 -20130104#17 -20130104#16 12704648#0 12704648#1 12704648#2 23321910#1 -12830068 12704221 23321888#0 23321888#1 -14482607#1 -12704379#1 -14382529#1 14456615#0 14456615#1"/>
    </vehicle>
    <vehicle id="t0_142" depart="0.00">
        <route edges="58919590#2 58919645#0 58919645#1 58919660#0 58919678 20329232#3 12718023#4 12718023#5 12718023#6 12717956 15259853#7 15259853#0 15259853#1 15259853#2 15259853#3 15092493 14399609#5 14399609#6 14399609#0 13687767#0 13687767#1 13687767#2 60932680#0 60932680#1 60932680#2 60932680#3 -23321894#2 -23321894#1 -23321894#0 -12830068 12704221 23321888#0 23321888#1 23321888#2 14381434#7 14381434#8 14381434#0 14381434#1 14381434#2 14381434#3 14381434#4 -14382138#1 -14382138#0 11412629#4 11412629#0 -11412629#0"/>
    </vehicle>
    <vehicle id="t0_143" depart="0.00">
        <route edges="12698945#3 -12698170#1 12699000 12699203#5 12699203#6 12699320 12699523#4 12699523#5 12699523#6 12699523#7 12699523#0 12193457#0 12193457#1 12193457#2 18111144#7 15218658 -15218634#8 -15218634#7 -15218634#6 -15218634#5 -15218634#4 -15218634#3 -15218634#2 -15218634#1 -15218634#0 61023999#0 61023999#1 61024000 61023889#6 61023889#7 61023889#0 61023889#1 20130096 20130104#0 20130104#1 20130104#2 20327665 -19804224#3 -19804224#2 -19804224#1 -19804224#0 -58257177#5 -58257177#4 -58257177#3 -58257177#2 -58257177#1 15073109#0 15073109#1"/>
    </vehicle>
    <vehicle id="t0_144" depart="0.00">
        <route edges="23936582#0 23936582#1 23936601 -23936598#0 23927441#1 58336141 23095459#3 23095446 19999786#1 19999786#2 19999786#3 12717939#0 12717939#1 12717939#2 12717939#3 12717939#4 12717939#5 23086218 23178571#3 15019342#0 15019342#1 14619376#0 23086446#0 23086446#1 23086446#2 58336104#0"/>
    </vehicle>
    <vehicle id="t0_145" depart="0.00">
        <route edges="-22088714#0 22088714#0 22088714#1 22088714#2 22088714#3 22088714#4 23284545#3 14455161 -15116971#0 14033420 15260158#0 15260158#1 -15120190#1 -15120190#0 14381434#3 14381434#4 14381434#5 12704379#0 12704379#1 14482607#1 -23321888#1 -23321888#0 -12704221 12830068 23321894#0 23321894#1 12704519#0 12704519#1 -20130104#13 23284305 23284309 15092069#1 15092069#2 15092069#3 -23265769#1 -23269748#3 -23269748#2 -23152908#2 -23152908#1"/>
    </vehicle>
    <vehicle id="t0_147" depart="0.00">
        <route edges="51283658 -51283658 -51285602 -44624618 -44624621 44624620#1 44622577#1 23289304#1 -14382058 11412629#3 14382138#0 14382138#1 14381434#5 12704379#0 12704379#1 14482607#1 14482607#2 14481776#1 14481776#2 14206265 -58429885#1 -58429885#0 58429884#0 58429884#1 -12654914#5 -12654914#4 -12654914#3 13790941#0 13790941#1"/>
    </vehicle>
    <vehicle id="t0_148" depart="0.00">
        <route edges="-11481398#2 11481398#2 -11406253#3 -11406253#2 -11406253#1 -11406253#0 -41222809#2 -41222809#1 -41222809#0 -23289304#2"/>
    </vehicle>
    <vehicle id="t0_149" depart="0.00">
        <route edges="-23027864#0 20839433#0 20839433#1 20839433#2 20839433#3 20839433#4 20839433#5 58928540 15259853#0 15259853#1 15259853#2 15259853#3 15092493 14399609#5 14399609#6 14399609#0 13687767#0 13687767#1 13687767#2 14489662#0 14483018 14482746#3 14482746#0 14482746#1 -14482707#2 -14482707#1 -14482707#0 20130104#9 20130104#10 20130104#11 20130104#12 20130104#13 20130104#14 20130104#15 20130104#16 20130104#17 20130104#18 20130104#19 20130104#20 11412250#0 11412250#1 11481398#0 15228119 -14383645#6 -14383645#5 14384402 14383969 20001352 20001279 18079523#0 18079523#1 18079523#2 23150704#0 23150704#1 57759400 57759422 37142748#3 37142748#4 37142748#5 37142748#6 37142748#7 37142748#8 15010909#0 15010909#1 -60812024#4 -60812024#3"/>
    </vehicle>
    <vehicle id="t0_150" depart="0.00">
        <route edges="58431554 58431575 58431566 17911195#5 17911195#6 17911195#0 17911195#1 17910979 14179463#0 14179463#1 14179463#2 14179463#3 14179463#4 19787426 17911828#2 15008658#0 15008658#1 15008658#2 19995755#0 58466469#1 15008658#4 15071686#1 15071686#2 15071686#3 -23376914 23298947#6 13791061#1 13791061#2 13791061#3 13791061#4 23376764#0 23376764#1"/>
    </vehicle>
    <vehicle id="t0_151" depart="0.00">
        <route edges="23150459#2 -23150459#2 -23150459#1 -15021273#0 15021612#3 15021612#4 15021612#0 19353475#0 19353475#1 21270078 21845624#2 21845624#3 21845624#4 21847093#0 21847093#1 21847093#2+58470117 21847093#3 58470816 14179463#0 14179463#1 14179463#2 14179463#3 14179463#4 19787426 17911828#2 15008658#0 15008658#1 15008658#2 19995755#0 19995755#1 19995755#2 19995755#3 19995755#4 19995755#5 58336168 58336165#4 58336174 58336187 23095459#2 23095459#3 23095446 19999786#1 19999786#2 19999786#3 12717939#0 12717939#1 12717939#2 12717939#3 12717939#4 12717939#5 12717939#6 12717939#7 14796186 12695353#0 12695353#1 12695353#2 15013099#0 15013099#1 15013099#2 14821072#0 14821072#1 14820193#4 14820193#5 14820611#0 14820611#1 14820611#2 14820611#3+58046364 14820611#4 15259853#3 15259853#4 15259853#5 15259853#6 15259853#7 15259853#0 58910452#0 58910452#1 58910452#2 58910452#3"/>
    </vehicle>
    <vehicle id="t0_152" depart="0.00">