<?xml version="1.0"?>
<!-- generated on 2011-01-17 10:58:41.259142 by $Id$ -->
<tripdefs>
    <tripdef id="t0" depart="0" from="15218641#2" to="58257177#3" />
    <tripdef id="t1" depart="1" from="12654866#0" to="23314605#1" />
    <tripdef id="t2" depart="2" from="-58429884#0" to="58473869#0" />
    <tripdef id="t3" depart="3" from="57989196" to="58473616#0" />
    <tripdef id="t4" depart="4" from="15116971#1" to="23026483#0" />
    <tripdef id="t5" depart="5" from="15501376" to="-23028325#1" />
    <tripdef id="t6" depart="6" from="-23279403" to="23057933#1" />
    <tripdef id="t7" depart="7" from="-23265798+-23265823#0" to="-41222808" />
    <tripdef id="t8" depart="8" from="-15227923#1" to="17973559" />
    <tripdef id="t9" depart="9" from="-15218634#2" to="-56978397#2" />
    <tripdef id="t10" depart="10" from="51281240#0" to="-23200543#4" />
    <tripdef id="t11" depart="11" from="23036917" to="58473613#0" />
    <tripdef id="t12" depart="12" from="12690654#6" to="23044444#1" />
    <tripdef id="t13" depart="13" from="58931695" to="15070192#1" />
    <tripdef id="t14" depart="14" from="22089093#1" to="-23274757#5" />
    <tripdef id="t15" depart="15" from="58043417" to="12654914#3" />
    <tripdef id="t16" depart="16" from="15008467#1" to="44624620#0" />
    <tripdef id="t17" depart="17" from="67290971" to="20937588" />
    <tripdef id="t18" depart="18" from="21845624#0" to="23027999" />
    <tripdef id="t19" depart="19" from="57043429#1" to="19892113#2" />
    <tripdef id="t20" depart="20" from="-23044444#1" to="-23271600#2" />
    <tripdef id="t21" depart="21" from="18079956#2" to="58043177#0" />
    <tripdef id="t22" depart="22" from="58361020" to="-17519425" />
    <tripdef id="t23" depart="23" from="-32228140#0" to="23936582#4" />
    <tripdef id="t24" depart="24" from="-57515688#0" to="-23376913" />
    <tripdef id="t25" depart="25" from="-23164173#4" to="-23207764#0" />
    <tripdef id="t26" depart="26" from="-56994857#0" to="17911985#6" />
    <tripdef id="t27" depart="27" from="40727086" to="21845624#1" />
    <tripdef id="t28" depart="28" from="-19787357#0" to="20841357" />
    <tripdef id="t29" depart="29" from="19892113#0" to="23937055#2" />
    <tripdef id="t30" depart="30" from="15218634#6" to="17973571#2" />
    <tripdef id="t31" depart="31" from="-60812024#2+-60812026" to="17521176" />
    <tripdef id="t32" depart="32" from="58043199#0" to="56978397#0" />
    <tripdef id="t33" depart="33" from="-23282126" to="20130104#13" />
    <tripdef id="t34" depart="34" from="-23150787#5" to="58919660#1" />
    <tripdef id="t35" depart="35" from="-51283562#0" to="-14384441" />
    <tripdef id="t36" depart="36" from="-58318117" to="58919678" />
    <tripdef id="t37" depart="37" from="58360372" to="-23274763#0" />
    <tripdef id="t38" depart="38" from="15420766" to="58473612#1" />
    <tripdef id="t39" depart="39" from="56997527" to="81913050" />
    <tripdef id="t40" depart="40" from="15012916#0" to="-56994835" />
    <tripdef id="t41" depart="41" from="23044444#10" to="-23026483#0" />
    <tripdef id="t42" depart="42" from="-57765773#0" to="-23027931#0" />
    <tripdef id="t43" depart="43" from="-20001352" to="12717939#7" />
    <tripdef id="t44" depart="44" from="-12703816#0" to="56994863#0" />
    <tripdef id="t45" depart="45" from="-57754686" to="-23037806#2" />
    <tripdef id="t46" depart="46" from="-23190133#1" to="60786396" />
    <tripdef id="t47" depart="47" from="-20936294#0" to="56994849#1" />
    <tripdef id="t48" depart="48" from="23178221#3" to="58868224" />
    <tripdef id="t49" depart="49" from="23274787#1" to="15006990#1" />
    <tripdef id="t50" depart="50" from="-56997520#2+56997520#1" to="57941426#0" />
    <tripdef id="t51" depart="51" from="56994861#0" to="-58429884#2" />
    <tripdef id="t52" depart="52" from="15116971#2" to="17912050#0" />
    <tripdef id="t53" depart="53" from="18958843" to="15219559#2" />
    <tripdef id="t54" depart="54" from="-57765813#1" to="56994850" />
    <tripdef id="t55" depart="55" from="-57754686" to="-19995755#3" />
    <tripdef id="t56" depart="56" from="12717939#0" to="23044511#0" />
    <tripdef id="t57" depart="57" from="-23936808#1" to="-59871082" />
    <tripdef id="t58" depart="58" from="57922614#1" to="60786388" />
    <tripdef id="t59" depart="59" from="58470160#1" to="18612444#1" />
    <tripdef id="t60" depart="60" from="-23269748#3" to="-23044511#1" />
    <tripdef id="t61" depart="61" from="15072231#5" to="-58868228" />
    <tripdef id="t62" depart="62" from="58474201#1" to="23086446#0" />
    <tripdef id="t63" depart="63" from="-14456849" to="12717956" />
    <tripdef id="t64" depart="64" from="-58336084#3" to="23190132" />
    <tripdef id="t65" depart="65" from="23164549#1" to="22330781#1" />
    <tripdef id="t66" depart="66" from="57746206#2" to="51281239#0" />
    <tripdef id="t67" depart="67" from="15092063#1" to="56696211" />
    <tripdef id="t68" depart="68" from="60786380#2" to="23036881#4" />
    <tripdef id="t69" depart="69" from="23164428#6" to="-23041143#2" />
    <tripdef id="t70" depart="70" from="67290255#2" to="57764498#0" />
    <tripdef id="t71" depart="71" from="51283714#1" to="-15218641#3" />
    <tripdef id="t72" depart="72" from="-18078306#1+18078306#0" to="14400199#5" />
    <tripdef id="t73" depart="73" from="23029060" to="58868225#1" />
    <tripdef id="t74" depart="74" from="-23190127" to="23115190#0" />
    <tripdef id="t75" depart="75" from="37143262#2" to="-23269375#1" />
    <tripdef id="t76" depart="76" from="20329230#7" to="-67265637#0" />
    <tripdef id="t77" depart="77" from="56722611#1" to="58336188" />
    <tripdef id="t78" depart="78" from="67290209#2" to="51283621#1" />
    <tripdef id="t79" depart="79" from="23093265#1" to="-58865950" />
    <tripdef id="t80" depart="80" from="-56722682" to="-23164173#5" />
    <tripdef id="t81" depart="81" from="15218660" to="14383645#4" />
    <tripdef id="t82" depart="82" from="-23376860#1" to="23264872#0" />
    <tripdef id="t83" depart="83" from="-17521176" to="-37143783" />
    <tripdef id="t84" depart="84" from="23269748#3" to="18075432#0" />
    <tripdef id="t85" depart="85" from="15501117#1" to="23376800#0" />
    <tripdef id="t86" depart="86" from="51283631#2" to="58361020" />
    <tripdef id="t87" depart="87" from="-81913079#0" to="-58865354" />
    <tripdef id="t88" depart="88" from="20839058" to="-23086443#6" />
    <tripdef id="t89" depart="89" from="-51283631#5" to="-57765814#2+57765814#1" />
    <tripdef id="t90" depart="90" from="-23164428#4" to="14820193#2" />
    <tripdef id="t91" depart="91" from="23150948#2" to="58474203#1" />
    <tripdef id="t92" depart="92" from="12699523#0" to="61603839#3" />
    <tripdef id="t93" depart="93" from="-57038347#0" to="-20130104#14" />
    <tripdef id="t94" depart="94" from="-21342174#0" to="58467661" />
    <tripdef id="t95" depart="95" from="17520259#2" to="58336114#0" />
    <tripdef id="t96" depart="96" from="-57038387" to="-58466524" />
    <tripdef id="t97" depart="97" from="-60786399" to="-13791061#0" />
    <tripdef id="t98" depart="98" from="15092468#0" to="19787362#3" />
    <tripdef id="t99" depart="99" from="67290289#1" to="20130104#15" />
    <tripdef id="t100" depart="100" from="-20130104#18" to="12698170#4" />
    <tripdef id="t101" depart="101" from="-58429884#2" to="61023889#3" />
    <tripdef id="t102" depart="102" from="44624621" to="-56994868" />
    <tripdef id="t103" depart="103" from="14399609#1" to="-58046351#6" />
    <tripdef id="t104" depart="104" from="23314640#0" to="15419279" />
    <tripdef id="t105" depart="105" from="58466454" to="23044444#7" />
    <tripdef id="t106" depart="106" from="-57765770#4" to="58046351#3" />
    <tripdef id="t107" depart="107" from="-41997949" to="58429871" />
    <tripdef id="t108" depart="108" from="51283691" to="15070523#2" />
    <tripdef id="t109" depart="109" from="-23028031#1" to="23376763" />
    <tripdef id="t110" depart="110" from="15229200#0" to="-51283581#1" />
    <tripdef id="t111" depart="111" from="19782745#1" to="-23392534" />
    <tripdef id="t112" depart="112" from="14456615#1" to="-67290320" />
    <tripdef id="t113" depart="113" from="23086445" to="23376800#0" />
    <tripdef id="t114" depart="114" from="-23376860#1" to="23279401#1" />
    <tripdef id="t115" depart="115" from="-23036919#1" to="14381434#2" />
    <tripdef id="t116" depart="116" from="-60932675" to="23027864#1" />
    <tripdef id="t117" depart="117" from="-23150787#0+-58338609" to="21847093#0" />
    <tripdef id="t118" depart="118" from="58473612#1" to="21769499#0" />
    <tripdef id="t119" depart="119" from="-23164173#0" to="58913690#1" />
    <tripdef id="t120" depart="120" from="-58043418" to="-57038388" />
    <tripdef id="t121" depart="121" from="15092063#0" to="58919590#2" />
    <tripdef id="t122" depart="122" from="56994855#0" to="56476134" />
    <tripdef id="t123" depart="123" from="67265637#0" to="17911195#6" />
    <tripdef id="t124" depart="124" from="17737018#3" to="58431578" />
    <tripdef id="t125" depart="125" from="-23200543#6" to="23314605#0" />
    <tripdef id="t126" depart="126" from="-58094637" to="32228189#2" />
    <tripdef id="t127" depart="127" from="57755003" to="-20001352" />
    <tripdef id="t128" depart="128" from="-58865950" to="-58336104#0" />
    <tripdef id="t129" depart="129" from="20329232#3" to="67290274#0" />
    <tripdef id="t130" depart="130" from="44622428#0" to="-58473750+-58522846#1" />
    <tripdef id="t131" depart="131" from="-20130104#0" to="-11406253#1" />
    <tripdef id="t132" depart="132" from="-58242436#2" to="59871077#9" />
    <tripdef id="t133" depart="133" from="-23103965#1" to="19804224#2" />
    <tripdef id="t134" depart="134" from="23178571#3" to="-23376860#4" />
    <tripdef id="t135" depart="135" from="-11412250#1" to="78609756#0" />
    <tripdef id="t136" depart="136" from="-23341680#2" to="58868220" />
    <tripdef id="t137" depart="137" from="23937055#2" to="-23279398#0" />
    <tripdef id="t138" depart="138" from="-20129406#0+-60759064#1" to="60932678" />
    <tripdef id="t139" depart="139" from="19787087#1" to="37143783" />
    <tripdef id="t140" depart="140" from="-23190126#3" to="-61235350" />
    <tripdef id="t141" depart="141" from="23103641#2" to="23274649" />
    <tripdef id="t142" depart="142" from="15012302#2" to="-57038398" />
    <tripdef id="t143" depart="143" from="-15117152#1" to="14481776#2" />
    <tripdef id="t144" depart="144" from="60786380#0" to="14820611#4" />
    <tripdef id="t145" depart="145" from="61235342" to="-57038377#2" />
    <tripdef id="t146" depart="146" from="44623989" to="-22493947#0" />
    <tripdef id="t147" depart="147" from="23104075#2" to="12717939#7" />
    <tripdef id="t148" depart="148" from="-15260158#0" to="23269258#2" />
    <tripdef id="t149" depart="149" from="58931697" to="-23164428#0" />
    <tripdef id="t150" depart="150" from="-57038394" to="58928540" />
    <tripdef id="t151" depart="151" from="58868131" to="20840288#1" />
    <tripdef id="t152" depart="152" from="-58336077#0" to="-58429884#1" />
    <tripdef id="t153" depart="153" from="23026389#1" to="-67290301#2" />
    <tripdef id="t154" depart="154" from="14819885#3" to="-59524144" />
    <tripdef id="t155" depart="155" from="21342174#3" to="-51283647" />
    <tripdef id="t156" depart="156" from="-23937055#2" to="20329232#0" />
    <tripdef id="t157" depart="157" from="58336130" to="11406253#0" />
    <tripdef id="t158" depart="158" from="-23284309" to="57759400" />
    <tripdef id="t159" depart="159" from="-20130104#10" to="20001345#0" />
    <tripdef id="t160" depart="160" from="57043428#1" to="12699203#6" />
    <tripdef id="t161" depart="161" from="23265805#1" to="-58925034" />
    <tripdef id="t162" depart="162" from="-22089093#1" to="-59524152#1+59524152#2" />
    <tripdef id="t163" depart="163" from="67290971" to="23279402#0" />
    <tripdef id="t164" depart="164" from="-51283714#0" to="57503914#1" />
    <tripdef id="t165" depart="165" from="-58470812#0" to="12698170#0" />
    <tripdef id="t166" depart="166" from="14381434#1" to="11481398#1" />
    <tripdef id="t167" depart="167" from="-57755001" to="-57746024#1" />
    <tripdef id="t168" depart="168" from="58336151" to="-15218634#6" />
    <tripdef id="t169" depart="169" from="20936263#1" to="-58866737#2+58866737#1" />
    <tripdef id="t170" depart="170" from="20000861#1" to="-23027781#1" />
    <tripdef id="t171" depart="171" from="59524142" to="-23057931#0" />
    <tripdef id="t172" depart="172" from="15218634#3" to="23036908#6" />
    <tripdef id="t173" depart="173" from="-51283647" to="-58473612#0" />
    <tripdef id="t174" depart="174" from="-23341675" to="23376860#3" />
    <tripdef id="t175" depart="175" from="56995249#0" to="37142748#1" />
    <tripdef id="t176" depart="176" from="15229200#8" to="-17737018#6" />
    <tripdef id="t177" depart="177" from="67290970" to="51283681" />
    <tripdef id="t178" depart="178" from="-12704379#1" to="-14382138#0" />
    <tripdef id="t179" depart="179" from="-58928543#0" to="56997516" />
    <tripdef id="t180" depart="180" from="22330780#0" to="-23274761#2+23274761#3" />
    <tripdef id="t181" depart="181" from="-58470183" to="51283531#1" />
    <tripdef id="t182" depart="182" from="56997527" to="23036908#2" />
    <tripdef id="t183" depart="183" from="23200543#2" to="15071686#3" />
    <tripdef id="t184" depart="184" from="15010909#5" to="-23936698" />
    <tripdef id="t185" depart="185" from="14619376#4" to="57547318#1" />
    <tripdef id="t186" depart="186" from="-41222814#0" to="-58473614#0" />
    <tripdef id="t187" depart="187" from="-23058094#1" to="57755441" />
    <tripdef id="t188" depart="188" from="-23376764#0" to="20329230#6" />
    <tripdef id="t189" depart="189" from="60210207" to="21767557#7" />
    <tripdef id="t190" depart="190" from="58928545#1" to="20838755#2" />
    <tripdef id="t191" depart="191" from="-18078306#1+18078306#0" to="11412629#4" />
    <tripdef id="t192" depart="192" from="-51140402" to="11412576#1+23264422#0" />
    <tripdef id="t193" depart="193" from="23376913" to="57515703#1" />
    <tripdef id="t194" depart="194" from="58360491#0" to="59871078#2" />
    <tripdef id="t195" depart="195" from="-51281238#1+51281238#0" to="58928537" />
    <tripdef id="t196" depart="196" from="17912021" to="-58474202" />
    <tripdef id="t197" depart="197" from="56997514#3" to="-58868212#2" />
    <tripdef id="t198" depart="198" from="-23937151" to="81913061#2" />
    <tripdef id="t199" depart="199" from="-14619376#6" to="23376800#1" />
    <tripdef id="t200" depart="200" from="-23341680#2" to="58466440" />
    <tripdef id="t201" depart="201" from="-11412576#0" to="23058094#2" />
    <tripdef id="t202" depart="202" from="15501625#6" to="-67290280#0" />
    <tripdef id="t203" depart="203" from="15219559#1" to="-23269256" />
    <tripdef id="t204" depart="204" from="23150459#2" to="-67290229#0" />
    <tripdef id="t205" depart="205" from="58336141" to="19995755#4" />
    <tripdef id="t206" depart="206" from="-58156733" to="-15092069#3" />
    <tripdef id="t207" depart="207" from="-59525092" to="-23036897" />
    <tripdef id="t208" depart="208" from="-41222814#2" to="58156733" />
    <tripdef id="t209" depart="209" from="-23274771#1" to="-23026471#0" />
    <tripdef id="t210" depart="210" from="19787236" to="15009597#1" />
    <tripdef id="t211" depart="211" from="-58866742" to="-58318329#1" />
    <tripdef id="t212" depart="212" from="-23927441#2" to="-58865946" />
    <tripdef id="t213" depart="213" from="-59151131#0" to="-57764483#0" />
    <tripdef id="t214" depart="214" from="-58257177#2" to="15070744#1" />
    <tripdef id="t215" depart="215" from="13775783#0" to="58470145" />
    <tripdef id="t216" depart="216" from="23936788#2" to="-12704379#0" />
    <tripdef id="t217" depart="217" from="59151131#0" to="14179463#4" />
    <tripdef id="t218" depart="218" from="57764498#2" to="51283714#5" />
    <tripdef id="t219" depart="219" from="61163410#0" to="58931697" />
    <tripdef id="t220" depart="220" from="56997511#1" to="11150533#1" />
    <tripdef id="t221" depart="221" from="32228140#2" to="23265824" />
    <tripdef id="t222" depart="222" from="57515688#2" to="-23054228" />
    <tripdef id="t223" depart="223" from="58046355#0" to="61163410#1" />
    <tripdef id="t224" depart="224" from="-23057815" to="60932681" />
    <tripdef id="t225" depart="225" from="58868212#0" to="-56997525#2" />
    <tripdef id="t226" depart="226" from="-20332763" to="-23086443#6" />
    <tripdef id="t227" depart="227" from="-23274791#0" to="-23274757#0" />
    <tripdef id="t228" depart="228" from="58361045#2" to="13687767#2" />
    <tripdef id="t229" depart="229" from="14202973" to="-51281239#0" />
    <tripdef id="t230" depart="230" from="37142908" to="58361011#0" />
    <tripdef id="t231" depart="231" from="59525147" to="58361021#2" />
    <tripdef id="t232" depart="232" from="15228018#3" to="21767557#2" />
    <tripdef id="t233" depart="233" from="11412576#0" to="-12690654#2" />
    <tripdef id="t234" depart="234" from="57043431" to="-14619456" />
    <tripdef id="t235" depart="235" from="58466522" to="23041143#2" />
    <tripdef id="t236" depart="236" from="-23164173#0" to="-23037187#1" />
    <tripdef id="t237" depart="237" from="-19787357#6" to="14399609#0" />
    <tripdef id="t238" depart="238" from="-58474203#3+58474203#2" to="60786388" />
    <tripdef id="t239" depart="239" from="15019342#0" to="58429885#1" />
    <tripdef id="t240" depart="240" from="67265637#3" to="-14206265" />
    <tripdef id="t241" depart="241" from="58474198" to="23207851#1" />
    <tripdef id="t242" depart="242" from="57754997#3" to="60786396" />
    <tripdef id="t243" depart="243" from="58928541#1" to="-23164428#5" />
    <tripdef id="t244" depart="244" from="-23279401#1" to="58866458" />
    <tripdef id="t245" depart="245" from="58470138" to="61603848" />
    <tripdef id="t246" depart="246" from="-60786403" to="23314738" />
    <tripdef id="t247" depart="247" from="19999786#1" to="13862081#1" />
    <tripdef id="t248" depart="248" from="23279396#4" to="23150832#0" />
    <tripdef id="t249" depart="249" from="58361022" to="-11412629#3" />
    <tripdef id="t250" depart="250" from="-60786379#0" to="23341443" />
    <tripdef id="t251" depart="251" from="58466453" to="15418141#3" />
    <tripdef id="t252" depart="252" from="58910452#2" to="-23135202" />
    <tripdef id="t253" depart="253" from="-23269375#3" to="58865945#3" />
    <tripdef id="t254" depart="254" from="23274789#1" to="-23274795#3" />
    <tripdef id="t255" depart="255" from="-23298947#4" to="58338485#1" />
    <tripdef id="t256" depart="256" from="37142748#5" to="15256889#2" />
    <tripdef id="t257" depart="257" from="61235328#0" to="13775783#1" />
    <tripdef id="t258" depart="258" from="-44622866#1" to="-22330832" />
    <tripdef id="t259" depart="259" from="58046351#6" to="23178221#3" />
    <tripdef id="t260" depart="260" from="-57765772" to="-23027864#0" />
    <tripdef id="t261" depart="261" from="23086443#5" to="-60116132" />
    <tripdef id="t262" depart="262" from="12654866#0" to="58361005#3" />
    <tripdef id="t263" depart="263" from="-61235323#4" to="23274757#2" />
    <tripdef id="t264" depart="264" from="-61235337" to="67290280#1" />
    <tripdef id="t265" depart="265" from="-58868206#1" to="20329230#4" />
    <tripdef id="t266" depart="266" from="58919685" to="-58257177#7" />
    <tripdef id="t267" depart="267" from="51287163" to="17964840" />
    <tripdef id="t268" depart="268" from="57043428#0" to="-56994868" />
    <tripdef id="t269" depart="269" from="67290270#0" to="12698170#3" />
    <tripdef id="t270" depart="270" from="58318095" to="-14619376#0" />
    <tripdef id="t271" depart="271" from="-23037806#4" to="-57985503" />
    <tripdef id="t272" depart="272" from="61023889#0" to="-56722611#1" />
    <tripdef id="t273" depart="273" from="59151129#1" to="4589798#1" />
    <tripdef id="t274" depart="274" from="-57989196" to="-60809413" />
    <tripdef id="t275" depart="275" from="-23269748#3" to="51283531#1" />
    <tripdef id="t276" depart="276" from="57941090" to="-67265637#3" />
    <tripdef id="t277" depart="277" from="-23341675" to="23150444#1" />
    <tripdef id="t278" depart="278" from="15259853#1" to="22089093#0" />
    <tripdef id="t279" depart="279" from="14619625" to="56994835" />
    <tripdef id="t280" depart="280" from="-59606762" to="-58470171" />
    <tripdef id="t281" depart="281" from="58865355" to="58866735" />
    <tripdef id="t282" depart="282" from="23041143#0" to="23274795#2" />
    <tripdef id="t283" depart="283" from="57754686" to="11406253#2" />
    <tripdef id="t284" depart="284" from="58865950" to="15070704" />
    <tripdef id="t285" depart="285" from="23027931#0" to="-60209862" />
    <tripdef id="t286" depart="286" from="57754046" to="17520259#2" />
    <tripdef id="t287" depart="287" from="-41222809#0" to="58429892" />
    <tripdef id="t288" depart="288" from="23026381#5" to="15071686#6" />
    <tripdef id="t289" depart="289" from="59524188#2" to="58474203#0" />
    <tripdef id="t290" depart="290" from="-60932680#3" to="51298334#1" />
    <tripdef id="t291" depart="291" from="19999786#5" to="61023889#2" />
    <tripdef id="t292" depart="292" from="60209860" to="-14008604#1" />
    <tripdef id="t293" depart="293" from="-23376860#0" to="17964560#2" />
    <tripdef id="t294" depart="294" from="-23027580" to="23321888#2" />
    <tripdef id="t295" depart="295" from="-58336119#0" to="-23274795#2" />
    <tripdef id="t296" depart="296" from="58913636#1" to="14383323" />
    <tripdef id="t297" depart="297" from="44622577#0" to="-20936263#1" />
    <tripdef id="t298" depart="298" from="12695353#2" to="14383645#5" />
    <tripdef id="t299" depart="299" from="23164839" to="58473616#0" />
    <tripdef id="t300" depart="300" from="23058033#0" to="-57515688#2" />
    <tripdef id="t301" depart="301" from="-51289496" to="-59606767" />
    <tripdef id="t302" depart="302" from="14007891#0" to="17964885#1" />
    <tripdef id="t303" depart="303" from="15069081" to="58361034" />
    <tripdef id="t304" depart="304" from="-58470175" to="-20838755#2" />
    <tripdef id="t305" depart="305" from="51140399" to="-20840986#1" />
    <tripdef id="t306" depart="306" from="23264872#2" to="58910450#1" />
    <tripdef id="t307" depart="307" from="12704648#0" to="58360372" />
    <tripdef id="t308" depart="308" from="-60811837#0" to="23936788#1" />
    <tripdef id="t309" depart="309" from="32228360#0" to="-58928538#1" />
    <tripdef id="t310" depart="310" from="20839433#3" to="30662396" />
    <tripdef id="t311" depart="311" from="14206265" to="-58910451" />
    <tripdef id="t312" depart="312" from="58094603#1" to="51283547#0" />
    <tripdef id="t313" depart="313" from="15229200#3" to="-14007891#3" />
    <tripdef id="t314" depart="314" from="-58928543#0" to="-23086448#1" />
    <tripdef id="t315" depart="315" from="-32228376" to="-23089193#0" />
    <tripdef id="t316" depart="316" from="-57764515" to="58308255" />
    <tripdef id="t317" depart="317" from="58868212#2" to="-51283604" />
    <tripdef id="t318" depart="318" from="14512229#2" to="20839433#4" />
    <tripdef id="t319" depart="319" from="23036891#1" to="-58473298#0" />
    <tripdef id="t320" depart="320" from="23150813" to="56994859#0" />
    <tripdef id="t321" depart="321" from="-15218641#1" to="-60786380#2" />
    <tripdef id="t322" depart="322" from="23152908#1" to="23037806#3" />
    <tripdef id="t323" depart="323" from="58868214" to="23026389#5" />
    <tripdef id="t324" depart="324" from="-19787357#7" to="-58046364" />
    <tripdef id="t325" depart="325" from="15021612#0" to="-23188775#1" />
    <tripdef id="t326" depart="326" from="-15228037#2" to="60116132" />
    <tripdef id="t327" depart="327" from="12704379#0" to="58866253" />
    <tripdef id="t328" depart="328" from="58865945#2" to="23281970" />
    <tripdef id="t329" depart="329" from="11412629#0" to="58318095" />
    <tripdef id="t330" depart="330" from="23026389#3" to="15522961#0" />
    <tripdef id="t331" depart="331" from="57043434" to="44622428#0" />
    <tripdef id="t332" depart="332" from="23274606" to="57764482#2" />
    <tripdef id="t333" depart="333" from="61235300" to="23164428#1" />
    <tripdef id="t334" depart="334" from="23936582#1" to="19896358" />
    <tripdef id="t335" depart="335" from="58474204#0" to="-23274787#0" />
    <tripdef id="t336" depart="336" from="-23150948#1" to="-57764482#0" />
    <tripdef id="t337" depart="337" from="-58242436#3" to="23037187#3" />
    <tripdef id="t338" depart="338" from="14619376#6" to="23115190#0" />
    <tripdef id="t339" depart="339" from="14368725" to="23044483#0" />
    <tripdef id="t340" depart="340" from="15117448#0" to="-23044444#10" />
    <tripdef id="t341" depart="341" from="23037798#1" to="15073109#0" />
    <tripdef id="t342" depart="342" from="22330784#1" to="-58318306#1" />
    <tripdef id="t343" depart="343" from="20838515#0" to="14513353#1" />
    <tripdef id="t344" depart="344" from="-12703816#1" to="19787236" />
    <tripdef id="t345" depart="345" from="-58361004#0" to="58910455" />
    <tripdef id="t346" depart="346" from="81913032" to="-58470145" />
    <tripdef id="t347" depart="347" from="58046351#1" to="-58318095" />
    <tripdef id="t348" depart="348" from="23178571#0" to="-56994859#0" />
    <tripdef id="t349" depart="349" from="56997514#1" to="15259853#6" />
    <tripdef id="t350" depart="350" from="58360489#1" to="23264421" />
    <tripdef id="t351" depart="351" from="51140400" to="19787357#0" />
    <tripdef id="t352" depart="352" from="61235300" to="-23037798#0" />
    <tripdef id="t353" depart="353" from="-23086445" to="58868225#1" />
    <tripdef id="t354" depart="354" from="51293314" to="51283647" />
    <tripdef id="t355" depart="355" from="-23036881#1" to="23086446#3" />
    <tripdef id="t356" depart="356" from="-21767557#0" to="-60809412#1" />
    <tripdef id="t357" depart="357" from="23274606" to="15021612#0" />
    <tripdef id="t358" depart="358" from="18479814#1" to="57040241" />
    <tripdef id="t359" depart="359" from="-58338586" to="-32228376" />
    <tripdef id="t360" depart="360" from="23284545#3" to="-23086446#5" />
    <tripdef id="t361" depart="361" from="23150806" to="21847093#0" />
    <tripdef id="t362" depart="362" from="-59525095" to="-23200547#0" />
    <tripdef id="t363" depart="363" from="11150533#0" to="14489662#1" />
    <tripdef id="t364" depart="364" from="59871077#3" to="14400199#0" />
    <tripdef id="t365" depart="365" from="-58338461" to="67290317#5" />
    <tripdef id="t366" depart="366" from="23376919" to="57985503" />
    <tripdef id="t367" depart="367" from="-14034373#0" to="-61163410#1" />
    <tripdef id="t368" depart="368" from="15019342#1" to="60974341" />
    <tripdef id="t369" depart="369" from="-67290242#0" to="15006990#1" />
    <tripdef id="t370" depart="370" from="-23036881#1" to="-56997524#0" />
    <tripdef id="t371" depart="371" from="-59524191" to="-13862074#1" />
    <tripdef id="t372" depart="372" from="22493947#0" to="-20936294#1" />
    <tripdef id="t373" depart="373" from="23936598#1" to="11285068#3" />
    <tripdef id="t374" depart="374" from="-23271600#0" to="57040235" />
    <tripdef id="t375" depart="375" from="-15218641#2" to="15218634#0" />
    <tripdef id="t376" depart="376" from="56994861#1" to="-13862074#1" />
    <tripdef id="t377" depart="377" from="-57764482#1" to="-67290218#0" />
    <tripdef id="t378" depart="378" from="20840291#1" to="-23314605#0" />
    <tripdef id="t379" depart="379" from="20329230#4" to="20839433#3" />
    <tripdef id="t380" depart="380" from="58866253" to="15418141#1" />
    <tripdef id="t381" depart="381" from="-58433619" to="19787362#3" />
    <tripdef id="t382" depart="382" from="-61235350" to="15009449" />
    <tripdef id="t383" depart="383" from="23927401" to="58336114#1" />
    <tripdef id="t384" depart="384" from="23103831#1" to="23936598#1" />
    <tripdef id="t385" depart="385" from="67290255#1" to="67290301#2" />
    <tripdef id="t386" depart="386" from="23058033#0" to="23298947#2" />
    <tripdef id="t387" depart="387" from="30662396" to="58470128#1" />
    <tripdef id="t388" depart="388" from="-58474192#1" to="58360491#0" />
    <tripdef id="t389" depart="389" from="-23029248" to="-23289304#0" />
    <tripdef id="t390" depart="390" from="57985503" to="-58474200" />
    <tripdef id="t391" depart="391" from="-56994841#2" to="23298972" />
    <tripdef id="t392" depart="392" from="56997531" to="23150948#0" />
    <tripdef id="t393" depart="393" from="-14456737#0" to="-57038378#0" />
    <tripdef id="t394" depart="394" from="-17737018#5" to="21269377#0" />
    <tripdef id="t395" depart="395" from="-58910450#0" to="58431554" />
    <tripdef id="t396" depart="396" from="-21342174#2" to="44622429#0" />
    <tripdef id="t397" depart="397" from="57515705" to="-60932680#0" />
    <tripdef id="t398" depart="398" from="20840253" to="57922614#0" />
    <tripdef id="t399" depart="399" from="58361005#4" to="23041142" />
    <tripdef id="t400" depart="400" from="58919538#0" to="15120190#1" />
    <tripdef id="t401" depart="401" from="-58525827" to="-58156729" />
    <tripdef id="t402" depart="402" from="-14007697#1" to="-23086445" />
    <tripdef id="t403" depart="403" from="-57765773#1" to="-15072773" />
    <tripdef id="t404" depart="404" from="20000861#1" to="15522961#1" />
    <tripdef id="t405" depart="405" from="61235337" to="14619841#1" />
    <tripdef id="t406" depart="406" from="58257177#9" to="58470816" />
    <tripdef id="t407" depart="407" from="-23041143#2" to="-58429871" />
    <tripdef id="t408" depart="408" from="32228360#1" to="17964560#2" />
    <tripdef id="t409" depart="409" from="15228091" to="60759069#2" />
    <tripdef id="t410" depart="410" from="15019798" to="60209862" />
    <tripdef id="t411" depart="411" from="32228377" to="58257177#5" />
    <tripdef id="t412" depart="412" from="-26294591" to="15013099#5" />