<nodes>
    <node id="01" x="0.0" y="0.0" />
    <node id="02" x="500.0" y="0.0" />
    <node id="03" x="1000.0" y="0.0" />
    <node id="04" x="1500.0" y="0.0" />
    <node id="05" x="0.0" y="500.0" />
    <node id="06" x="500.0" y="500.0" type="traffic_light"/>
    <node id="07" x="1000.0" y="500.0" type="traffic_light"/>
    <node id="08" x="1500.0" y="500.0" />
    <node id="09" x="0.0" y="1000.0" />
    <node id="10" x="500.0" y="1000.0" type="traffic_light"/>
    <node id="11" x="1000.0" y="1000.0" type="traffic_light"/>
    <node id="12" x="1500.0" y="1000.0" />
    <node id="13" x="0.0" y="1500.0" />
    <node id="14" x="500.0" y="1500.0" />
    <node id="15" x="1000.0" y="1500.0" />
    <node id="16" x="1500.0" y="1500.0" />
</nodes>

