<?xml version="1.0"?>

<!-- generated on Tue Apr 26 15:40:18 2011 by SUMO netconvert Version 0.12.2
<?xml version="1.0" encoding="iso-8859-1"?>

<configuration xmlns:xsi="http://www.w3.org/2001/XMLSchema-instance" xsi:noNamespaceSchemaLocation="http://sumo.sf.net/xsd/netconvertConfiguration.xsd">

    <input>
        <xml-node-files value="lattice.nod.xml"/>
        <xml-edge-files value="lattice.edg.xml"/>
    </input>

    <output>
        <output-file value="lattice.net.xml"/>
    </output>

    <processing>
        <no-turnarounds value="true"/>
    </processing>

</configuration>
-->

<net>

   <location netOffset="0.00,0.00" convBoundary="0.00,0.00,2500.00,2500.00" origBoundary="0.00,0.00,2500.00,2500.00" projParameter="!"/>

   <edge id=":01_0" function="internal">
      <lanes>
         <lane id=":01_0_0" depart="0" maxspeed="13.89" length="18.55" shape="-4.95,6.55 -4.23,1.52 -2.08,-2.07 1.52,-4.23 6.55,-4.95"/>
      </lanes>
   </edge>
   <edge id=":01_1" function="internal">
      <lanes>
         <lane id=":01_1_0" depart="0" maxspeed="13.89" length="13.22" shape="-1.65,6.55 -1.14,2.96 0.40,0.40 2.96,-1.14 6.55,-1.65"/>
      </lanes>
   </edge>
   <edge id=":01_2" function="internal">
      <lanes>
         <lane id=":01_2_0" depart="0" maxspeed="13.89" length="2.58" shape="6.55,4.95 5.85,5.05 5.35,5.35 5.05,5.85 4.95,6.55"/>
      </lanes>
   </edge>
   <edge id=":01_3" function="internal">
      <lanes>
         <lane id=":01_3_0" depart="0" maxspeed="13.89" length="7.90" shape="6.55,1.65 4.41,1.96 2.88,2.87 1.96,4.41 1.65,6.55"/>
      </lanes>
   </edge>
   <edge id=":02_0" function="internal">
      <lanes>
         <lane id=":02_0_0" depart="0" maxspeed="13.89" length="5.00" shape="498.35,8.05 498.16,6.69 497.57,5.73 496.61,5.14 495.25,4.95"/>
      </lanes>
   </edge>
   <edge id=":02_1" function="internal">
      <lanes>
         <lane id=":02_1_0" depart="0" maxspeed="13.89" length="13.09" shape="498.35,8.05 498.75,3.81 499.95,0.78 501.95,-1.04 504.75,-1.65"/>
      </lanes>
   </edge>
   <edge id=":02_2" function="internal">
      <lanes>
         <lane id=":02_2_0" depart="0" maxspeed="13.89" length="5.00" shape="504.75,4.95 503.39,5.14 502.43,5.72 501.84,6.69 501.65,8.05"/>
      </lanes>
   </edge>
   <edge id=":02_3" function="internal">
      <lanes>
         <lane id=":02_3_0" depart="0" maxspeed="13.89" length="9.50" shape="504.75,4.95 495.25,4.95"/>
      </lanes>
   </edge>
   <edge id=":02_4" function="internal">
      <lanes>
         <lane id=":02_4_0" depart="0" maxspeed="13.89" length="9.50" shape="504.75,1.65 495.25,1.65"/>
      </lanes>
   </edge>
   <edge id=":02_5" function="internal">
      <lanes>
         <lane id=":02_5_0" depart="0" maxspeed="13.89" length="9.50" shape="495.25,-4.95 504.75,-4.95"/>
      </lanes>
   </edge>
   <edge id=":02_6" function="internal">
      <lanes>
         <lane id=":02_6_0" depart="0" maxspeed="13.89" length="13.09" shape="495.25,-1.65 498.05,-1.04 500.05,0.77 501.25,3.81 501.65,8.05"/>
      </lanes>
   </edge>
   <edge id=":03_0" function="internal">
      <lanes>
         <lane id=":03_0_0" depart="0" maxspeed="13.89" length="5.00" shape="998.35,8.05 998.16,6.69 997.57,5.73 996.61,5.14 995.25,4.95"/>
      </lanes>
   </edge>
   <edge id=":03_1" function="internal">
      <lanes>
         <lane id=":03_1_0" depart="0" maxspeed="13.89" length="13.09" shape="998.35,8.05 998.75,3.81 999.95,0.78 1001.95,-1.04 1004.75,-1.65"/>
      </lanes>
   </edge>
   <edge id=":03_2" function="internal">
      <lanes>
         <lane id=":03_2_0" depart="0" maxspeed="13.89" length="5.00" shape="1004.75,4.95 1003.39,5.14 1002.43,5.72 1001.84,6.69 1001.65,8.05"/>
      </lanes>
   </edge>
   <edge id=":03_3" function="internal">
      <lanes>
         <lane id=":03_3_0" depart="0" maxspeed="13.89" length="9.50" shape="1004.75,4.95 995.25,4.95"/>
      </lanes>
   </edge>
   <edge id=":03_4" function="internal">
      <lanes>
         <lane id=":03_4_0" depart="0" maxspeed="13.89" length="9.50" shape="1004.75,1.65 995.25,1.65"/>
      </lanes>
   </edge>
   <edge id=":03_5" function="internal">
      <lanes>
         <lane id=":03_5_0" depart="0" maxspeed="13.89" length="9.50" shape="995.25,-4.95 1004.75,-4.95"/>
      </lanes>
   </edge>
   <edge id=":03_6" function="internal">
      <lanes>
         <lane id=":03_6_0" depart="0" maxspeed="13.89" length="13.09" shape="995.25,-1.65 998.05,-1.04 1000.05,0.77 1001.25,3.81 1001.65,8.05"/>
      </lanes>
   </edge>
   <edge id=":04_0" function="internal">
      <lanes>
         <lane id=":04_0_0" depart="0" maxspeed="13.89" length="5.00" shape="1498.35,8.05 1498.16,6.69 1497.57,5.73 1496.61,5.14 1495.25,4.95"/>
      </lanes>
   </edge>
   <edge id=":04_1" function="internal">
      <lanes>
         <lane id=":04_1_0" depart="0" maxspeed="13.89" length="13.09" shape="1498.35,8.05 1498.75,3.81 1499.95,0.78 1501.95,-1.04 1504.75,-1.65"/>
      </lanes>
   </edge>
   <edge id=":04_2" function="internal">
      <lanes>
         <lane id=":04_2_0" depart="0" maxspeed="13.89" length="5.00" shape="1504.75,4.95 1503.39,5.14 1502.43,5.72 1501.84,6.69 1501.65,8.05"/>
      </lanes>
   </edge>
   <edge id=":04_3" function="internal">
      <lanes>
         <lane id=":04_3_0" depart="0" maxspeed="13.89" length="9.50" shape="1504.75,4.95 1495.25,4.95"/>
      </lanes>
   </edge>
   <edge id=":04_4" function="internal">
      <lanes>
         <lane id=":04_4_0" depart="0" maxspeed="13.89" length="9.50" shape="1504.75,1.65 1495.25,1.65"/>
      </lanes>
   </edge>
   <edge id=":04_5" function="internal">
      <lanes>
         <lane id=":04_5_0" depart="0" maxspeed="13.89" length="9.50" shape="1495.25,-4.95 1504.75,-4.95"/>
      </lanes>
   </edge>
   <edge id=":04_6" function="internal">
      <lanes>
         <lane id=":04_6_0" depart="0" maxspeed="13.89" length="13.09" shape="1495.25,-1.65 1498.05,-1.04 1500.05,0.77 1501.25,3.81 1501.65,8.05"/>
      </lanes>
   </edge>
   <edge id=":05_0" function="internal">
      <lanes>
         <lane id=":05_0_0" depart="0" maxspeed="13.89" length="5.00" shape="1998.35,8.05 1998.16,6.69 1997.57,5.73 1996.61,5.14 1995.25,4.95"/>
      </lanes>
   </edge>
   <edge id=":05_1" function="internal">
      <lanes>
         <lane id=":05_1_0" depart="0" maxspeed="13.89" length="13.09" shape="1998.35,8.05 1998.75,3.81 1999.95,0.78 2001.95,-1.04 2004.75,-1.65"/>
      </lanes>
   </edge>
   <edge id=":05_2" function="internal">
      <lanes>
         <lane id=":05_2_0" depart="0" maxspeed="13.89" length="5.00" shape="2004.75,4.95 2003.39,5.14 2002.43,5.72 2001.84,6.69 2001.65,8.05"/>
      </lanes>
   </edge>
   <edge id=":05_3" function="internal">
      <lanes>
         <lane id=":05_3_0" depart="0" maxspeed="13.89" length="9.50" shape="2004.75,4.95 1995.25,4.95"/>
      </lanes>
   </edge>
   <edge id=":05_4" function="internal">
      <lanes>
         <lane id=":05_4_0" depart="0" maxspeed="13.89" length="9.50" shape="2004.75,1.65 1995.25,1.65"/>
      </lanes>
   </edge>
   <edge id=":05_5" function="internal">
      <lanes>
         <lane id=":05_5_0" depart="0" maxspeed="13.89" length="9.50" shape="1995.25,-4.95 2004.75,-4.95"/>
      </lanes>
   </edge>
   <edge id=":05_6" function="internal">
      <lanes>
         <lane id=":05_6_0" depart="0" maxspeed="13.89" length="13.09" shape="1995.25,-1.65 1998.05,-1.04 2000.05,0.77 2001.25,3.81 2001.65,8.05"/>
      </lanes>
   </edge>
   <edge id=":06_0" function="internal">
      <lanes>
         <lane id=":06_0_0" depart="0" maxspeed="13.89" length="2.58" shape="2495.05,6.55 2494.95,5.85 2494.65,5.35 2494.15,5.05 2493.45,4.95"/>
      </lanes>
   </edge>
   <edge id=":06_1" function="internal">
      <lanes>
         <lane id=":06_1_0" depart="0" maxspeed="13.89" length="7.90" shape="2498.35,6.55 2498.04,4.41 2497.12,2.88 2495.59,1.96 2493.45,1.65"/>
      </lanes>
   </edge>
   <edge id=":06_2" function="internal">
      <lanes>
         <lane id=":06_2_0" depart="0" maxspeed="13.89" length="18.55" shape="2493.45,-4.95 2498.48,-4.23 2502.08,-2.08 2504.23,1.52 2504.95,6.55"/>
      </lanes>
   </edge>
   <edge id=":06_3" function="internal">
      <lanes>
         <lane id=":06_3_0" depart="0" maxspeed="13.89" length="13.22" shape="2493.45,-1.65 2497.04,-1.14 2499.60,0.40 2501.14,2.96 2501.65,6.55"/>
      </lanes>
   </edge>
   <edge id=":07_0" function="internal">
      <lanes>
         <lane id=":07_0_0" depart="0" maxspeed="13.89" length="9.50" shape="-4.95,504.75 -4.95,495.25"/>
      </lanes>
   </edge>
   <edge id=":07_1" function="internal">
      <lanes>
         <lane id=":07_1_0" depart="0" maxspeed="13.89" length="13.09" shape="-1.65,504.75 -1.04,501.95 0.77,499.95 3.81,498.75 8.05,498.35"/>
      </lanes>
   </edge>
   <edge id=":07_2" function="internal">
      <lanes>
         <lane id=":07_2_0" depart="0" maxspeed="13.89" length="5.00" shape="8.05,501.65 6.69,501.84 5.73,502.42 5.14,503.39 4.95,504.75"/>
      </lanes>
   </edge>
   <edge id=":07_3" function="internal">
      <lanes>
         <lane id=":07_3_0" depart="0" maxspeed="13.89" length="13.09" shape="8.05,501.65 3.81,501.25 0.77,500.05 -1.04,498.05 -1.65,495.25"/>
      </lanes>
   </edge>
   <edge id=":07_4" function="internal">
      <lanes>
         <lane id=":07_4_0" depart="0" maxspeed="13.89" length="5.00" shape="4.95,495.25 5.14,496.61 5.73,497.58 6.69,498.16 8.05,498.35"/>
      </lanes>
   </edge>
   <edge id=":07_5" function="internal">
      <lanes>
         <lane id=":07_5_0" depart="0" maxspeed="13.89" length="9.50" shape="4.95,495.25 4.95,504.75"/>
      </lanes>
   </edge>
   <edge id=":07_6" function="internal">
      <lanes>
         <lane id=":07_6_0" depart="0" maxspeed="13.89" length="9.50" shape="1.65,495.25 1.65,504.75"/>
      </lanes>
   </edge>
   <edge id=":08_0" function="internal">
      <lanes>
         <lane id=":08_0_0" depart="0" maxspeed="13.89" length="7.85" shape="495.05,508.05 494.86,505.25 494.27,503.25 493.31,502.05 491.95,501.65"/>
      </lanes>
   </edge>
   <edge id=":08_1" function="internal">
      <lanes>
         <lane id=":08_1_0" depart="0" maxspeed="13.89" length="16.51" shape="495.05,508.05 495.57,502.77 496.70,498.79 497.83,495.42 498.35,491.95"/>
      </lanes>
   </edge>
   <edge id=":08_2" function="internal">
      <lanes>
         <lane id=":08_2_0" depart="0" maxspeed="13.89" length="20.97" shape="495.05,508.05 495.86,502.36 498.30,498.30 502.36,495.86 508.05,495.05"/>
      </lanes>
   </edge>
   <edge id=":08_3" function="internal">
      <lanes>
         <lane id=":08_3_0" depart="0" maxspeed="13.89" length="15.64" shape="498.35,508.05 498.96,503.81 500.77,500.77 503.81,498.96 508.05,498.35"/>
      </lanes>
   </edge>
   <edge id=":08_4" function="internal">
      <lanes>
         <lane id=":08_4_0" depart="0" maxspeed="13.89" length="5.00" shape="508.05,504.95 506.69,505.14 505.73,505.72 505.14,506.69 504.95,508.05"/>
      </lanes>
   </edge>
   <edge id=":08_5" function="internal">
      <lanes>
         <lane id=":08_5_0" depart="0" maxspeed="13.89" length="16.10" shape="508.05,501.65 502.84,501.65 498.86,501.65 495.44,501.65 491.95,501.65"/>
      </lanes>
   </edge>
   <edge id=":08_6" function="internal">
      <lanes>
         <lane id=":08_6_0" depart="0" maxspeed="13.89" length="6.32" shape="508.05,501.65 502.51,500.27"/>
      </lanes>
   </edge>
   <edge id=":08_13" function="internal">
      <lanes>
         <lane id=":08_13_0" depart="0" maxspeed="13.89" length="9.33" shape="502.51,500.27 500.77,499.22 498.96,496.19 498.35,491.95"/>
      </lanes>
   </edge>
   <edge id=":08_7" function="internal">
      <lanes>
         <lane id=":08_7_0" depart="0" maxspeed="13.89" length="7.85" shape="501.65,491.95 502.05,493.31 503.25,494.27 505.25,494.86 508.05,495.05"/>
      </lanes>
   </edge>
   <edge id=":08_8" function="internal">
      <lanes>
         <lane id=":08_8_0" depart="0" maxspeed="13.89" length="16.51" shape="501.65,491.95 502.17,495.42 503.30,498.79 504.43,502.77 504.95,508.05"/>
      </lanes>
   </edge>
   <edge id=":08_9" function="internal">
      <lanes>
         <lane id=":08_9_0" depart="0" maxspeed="13.89" length="6.32" shape="501.65,491.95 500.27,497.49"/>
      </lanes>
   </edge>
   <edge id=":08_14" function="internal">
      <lanes>
         <lane id=":08_14_0" depart="0" maxspeed="13.89" length="9.33" shape="500.27,497.49 499.23,499.23 496.19,501.04 491.95,501.65"/>
      </lanes>
   </edge>
   <edge id=":08_10" function="internal">
      <lanes>
         <lane id=":08_10_0" depart="0" maxspeed="13.89" length="10.32" shape="491.95,498.35 494.75,497.95 496.75,496.75 497.95,494.75 498.35,491.95"/>
      </lanes>
   </edge>
   <edge id=":08_11" function="internal">
      <lanes>
         <lane id=":08_11_0" depart="0" maxspeed="13.89" length="16.51" shape="491.95,498.35 495.42,497.83 498.79,496.70 502.77,495.57 508.05,495.05"/>
      </lanes>
   </edge>
   <edge id=":08_12" function="internal">
      <lanes>
         <lane id=":08_12_0" depart="0" maxspeed="13.89" length="4.74" shape="491.95,498.35 498.83,500.54"/>
      </lanes>
   </edge>
   <edge id=":08_15" function="internal">
      <lanes>
         <lane id=":08_15_0" depart="0" maxspeed="13.89" length="10.90" shape="498.83,500.54 499.23,500.78 501.04,503.81 501.65,508.05"/>
      </lanes>
   </edge>
   <edge id=":09_0" function="internal">
      <lanes>
         <lane id=":09_0_0" depart="0" maxspeed="13.89" length="5.00" shape="998.35,508.05 998.16,506.69 997.57,505.73 996.61,505.14 995.25,504.95"/>
      </lanes>
   </edge>
   <edge id=":09_1" function="internal">
      <lanes>
         <lane id=":09_1_0" depart="0" maxspeed="13.89" length="16.10" shape="998.35,508.05 998.35,504.13 998.35,500.00 998.35,495.87 998.35,491.95"/>
      </lanes>
   </edge>
   <edge id=":09_2" function="internal">
      <lanes>
         <lane id=":09_2_0" depart="0" maxspeed="13.89" length="13.09" shape="998.35,508.05 998.75,503.81 999.95,500.77 1001.95,498.96 1004.75,498.35"/>
      </lanes>
   </edge>
   <edge id=":09_3" function="internal">
      <lanes>
         <lane id=":09_3_0" depart="0" maxspeed="13.89" length="5.00" shape="1004.75,504.95 1003.39,505.14 1002.43,505.72 1001.84,506.69 1001.65,508.05"/>
      </lanes>
   </edge>
   <edge id=":09_4" function="internal">
      <lanes>
         <lane id=":09_4_0" depart="0" maxspeed="13.89" length="9.50" shape="1004.75,504.95 995.25,504.95"/>
      </lanes>
   </edge>
   <edge id=":09_5" function="internal">
      <lanes>
         <lane id=":09_5_0" depart="0" maxspeed="13.89" length="9.50" shape="1004.75,501.65 995.25,501.65"/>
      </lanes>
   </edge>
   <edge id=":09_6" function="internal">
      <lanes>
         <lane id=":09_6_0" depart="0" maxspeed="13.89" length="13.09" shape="1004.75,501.65 1001.95,501.04 999.95,499.22 998.75,496.19 998.35,491.95"/>
      </lanes>
   </edge>
   <edge id=":09_7" function="internal">
      <lanes>
         <lane id=":09_7_0" depart="0" maxspeed="13.89" length="5.00" shape="1001.65,491.95 1001.84,493.31 1002.43,494.27 1003.39,494.86 1004.75,495.05"/>
      </lanes>
   </edge>
   <edge id=":09_8" function="internal">
      <lanes>
         <lane id=":09_8_0" depart="0" maxspeed="13.89" length="16.10" shape="1001.65,491.95 1001.65,495.87 1001.65,500.00 1001.65,504.13 1001.65,508.05"/>
      </lanes>
   </edge>
   <edge id=":09_9" function="internal">
      <lanes>
         <lane id=":09_9_0" depart="0" maxspeed="13.89" length="13.09" shape="1001.65,491.95 1001.25,496.19 1000.05,499.23 998.05,501.04 995.25,501.65"/>
      </lanes>
   </edge>
   <edge id=":09_10" function="internal">
      <lanes>
         <lane id=":09_10_0" depart="0" maxspeed="13.89" length="5.00" shape="995.25,495.05 996.61,494.86 997.57,494.28 998.16,493.31 998.35,491.95"/>
      </lanes>
   </edge>
   <edge id=":09_11" function="internal">
      <lanes>
         <lane id=":09_11_0" depart="0" maxspeed="13.89" length="9.50" shape="995.25,495.05 1004.75,495.05"/>
      </lanes>
   </edge>
   <edge id=":09_12" function="internal">
      <lanes>
         <lane id=":09_12_0" depart="0" maxspeed="13.89" length="9.50" shape="995.25,498.35 1004.75,498.35"/>
      </lanes>
   </edge>
   <edge id=":09_13" function="internal">
      <lanes>
         <lane id=":09_13_0" depart="0" maxspeed="13.89" length="13.09" shape="995.25,498.35 998.05,498.96 1000.05,500.78 1001.25,503.81 1001.65,508.05"/>
      </lanes>
   </edge>
   <edge id=":10_0" function="internal">
      <lanes>
         <lane id=":10_0_0" depart="0" maxspeed="13.89" length="5.00" shape="1498.35,508.05 1498.16,506.69 1497.57,505.73 1496.61,505.14 1495.25,504.95"/>
      </lanes>
   </edge>
   <edge id=":10_1" function="internal">
      <lanes>
         <lane id=":10_1_0" depart="0" maxspeed="13.89" length="16.10" shape="1498.35,508.05 1498.35,504.13 1498.35,500.00 1498.35,495.87 1498.35,491.95"/>
      </lanes>
   </edge>
   <edge id=":10_2" function="internal">
      <lanes>
         <lane id=":10_2_0" depart="0" maxspeed="13.89" length="13.09" shape="1498.35,508.05 1498.75,503.81 1499.95,500.77 1501.95,498.96 1504.75,498.35"/>
      </lanes>
   </edge>
   <edge id=":10_3" function="internal">
      <lanes>
         <lane id=":10_3_0" depart="0" maxspeed="13.89" length="5.00" shape="1504.75,504.95 1503.39,505.14 1502.43,505.72 1501.84,506.69 1501.65,508.05"/>
      </lanes>
   </edge>
   <edge id=":10_4" function="internal">
      <lanes>
         <lane id=":10_4_0" depart="0" maxspeed="13.89" length="9.50" shape="1504.75,504.95 1495.25,504.95"/>
      </lanes>
   </edge>
   <edge id=":10_5" function="internal">
      <lanes>
         <lane id=":10_5_0" depart="0" maxspeed="13.89" length="9.50" shape="1504.75,501.65 1495.25,501.65"/>
      </lanes>
   </edge>
   <edge id=":10_6" function="internal">
      <lanes>
         <lane id=":10_6_0" depart="0" maxspeed="13.89" length="13.09" shape="1504.75,501.65 1501.95,501.04 1499.95,499.22 1498.75,496.19 1498.35,491.95"/>
      </lanes>
   </edge>
   <edge id=":10_7" function="internal">
      <lanes>
         <lane id=":10_7_0" depart="0" maxspeed="13.89" length="5.00" shape="1501.65,491.95 1501.84,493.31 1502.43,494.27 1503.39,494.86 1504.75,495.05"/>
      </lanes>
   </edge>
   <edge id=":10_8" function="internal">
      <lanes>
         <lane id=":10_8_0" depart="0" maxspeed="13.89" length="16.10" shape="1501.65,491.95 1501.65,495.87 1501.65,500.00 1501.65,504.13 1501.65,508.05"/>
      </lanes>
   </edge>
   <edge id=":10_9" function="internal">
      <lanes>
         <lane id=":10_9_0" depart="0" maxspeed="13.89" length="13.09" shape="1501.65,491.95 1501.25,496.19 1500.05,499.23 1498.05,501.04 1495.25,501.65"/>
      </lanes>
   </edge>
   <edge id=":10_10" function="internal">
      <lanes>
         <lane id=":10_10_0" depart="0" maxspeed="13.89" length="5.00" shape="1495.25,495.05 1496.61,494.86 1497.57,494.28 1498.16,493.31 1498.35,491.95"/>
      </lanes>
   </edge>
   <edge id=":10_11" function="internal">
      <lanes>
         <lane id=":10_11_0" depart="0" maxspeed="13.89" length="9.50" shape="1495.25,495.05 1504.75,495.05"/>
      </lanes>
   </edge>
   <edge id=":10_12" function="internal">
      <lanes>
         <lane id=":10_12_0" depart="0" maxspeed="13.89" length="9.50" shape="1495.25,498.35 1504.75,498.35"/>
      </lanes>
   </edge>
   <edge id=":10_13" function="internal">
      <lanes>
         <lane id=":10_13_0" depart="0" maxspeed="13.89" length="13.09" shape="1495.25,498.35 1498.05,498.96 1500.05,500.78 1501.25,503.81 1501.65,508.05"/>
      </lanes>
   </edge>
   <edge id=":11_0" function="internal">
      <lanes>
         <lane id=":11_0_0" depart="0" maxspeed="13.89" length="5.00" shape="1995.05,508.05 1994.86,506.69 1994.27,505.73 1993.31,505.14 1991.95,504.95"/>
      </lanes>
   </edge>
   <edge id=":11_1" function="internal">
      <lanes>
         <lane id=":11_1_0" depart="0" maxspeed="13.89" length="16.10" shape="1998.35,508.05 1998.35,502.84 1998.35,498.86 1998.35,495.44 1998.35,491.95"/>
      </lanes>
   </edge>
   <edge id=":11_2" function="internal">
      <lanes>
         <lane id=":11_2_0" depart="0" maxspeed="13.89" length="6.32" shape="1998.35,508.05 1999.73,502.51"/>
      </lanes>
   </edge>
   <edge id=":11_13" function="internal">
      <lanes>
         <lane id=":11_13_0" depart="0" maxspeed="13.89" length="9.33" shape="1999.73,502.51 2000.77,500.77 2003.81,498.96 2008.05,498.35"/>
      </lanes>
   </edge>
   <edge id=":11_3" function="internal">
      <lanes>
         <lane id=":11_3_0" depart="0" maxspeed="13.89" length="7.85" shape="2008.05,501.65 2006.69,502.05 2005.73,503.25 2005.14,505.25 2004.95,508.05"/>
      </lanes>
   </edge>
   <edge id=":11_4" function="internal">
      <lanes>
         <lane id=":11_4_0" depart="0" maxspeed="13.89" length="16.51" shape="2008.05,501.65 2004.58,502.17 2001.21,503.30 1997.23,504.43 1991.95,504.95"/>
      </lanes>
   </edge>
   <edge id=":11_5" function="internal">
      <lanes>
         <lane id=":11_5_0" depart="0" maxspeed="13.89" length="6.32" shape="2008.05,501.65 2002.51,500.27"/>
      </lanes>
   </edge>
   <edge id=":11_14" function="internal">
      <lanes>
         <lane id=":11_14_0" depart="0" maxspeed="13.89" length="9.33" shape="2002.51,500.27 2000.77,499.22 1998.96,496.19 1998.35,491.95"/>
      </lanes>
   </edge>
   <edge id=":11_6" function="internal">
      <lanes>
         <lane id=":11_6_0" depart="0" maxspeed="13.89" length="10.32" shape="2001.65,491.95 2002.05,494.75 2003.25,496.75 2005.25,497.95 2008.05,498.35"/>
      </lanes>
   </edge>
   <edge id=":11_7" function="internal">
      <lanes>
         <lane id=":11_7_0" depart="0" maxspeed="13.89" length="16.51" shape="2001.65,491.95 2002.17,495.42 2003.30,498.79 2004.43,502.77 2004.95,508.05"/>
      </lanes>
   </edge>
   <edge id=":11_8" function="internal">
      <lanes>
         <lane id=":11_8_0" depart="0" maxspeed="13.89" length="4.74" shape="2001.65,491.95 1999.46,498.83"/>
      </lanes>
   </edge>
   <edge id=":11_15" function="internal">
      <lanes>
         <lane id=":11_15_0" depart="0" maxspeed="13.89" length="10.90" shape="1999.46,498.83 1999.23,499.23 1996.19,501.04 1991.95,501.65"/>
      </lanes>
   </edge>
   <edge id=":11_9" function="internal">
      <lanes>
         <lane id=":11_9_0" depart="0" maxspeed="13.89" length="7.85" shape="1991.95,495.05 1994.75,494.86 1996.75,494.28 1997.95,493.31 1998.35,491.95"/>
      </lanes>
   </edge>
   <edge id=":11_10" function="internal">
      <lanes>
         <lane id=":11_10_0" depart="0" maxspeed="13.89" length="16.51" shape="1991.95,495.05 1997.23,495.57 2001.21,496.70 2004.58,497.83 2008.05,498.35"/>
      </lanes>
   </edge>
   <edge id=":11_11" function="internal">
      <lanes>
         <lane id=":11_11_0" depart="0" maxspeed="13.89" length="20.97" shape="1991.95,495.05 1997.64,495.86 2001.70,498.30 2004.14,502.36 2004.95,508.05"/>
      </lanes>
   </edge>
   <edge id=":11_12" function="internal">
      <lanes>
         <lane id=":11_12_0" depart="0" maxspeed="13.89" length="15.64" shape="1991.95,498.35 1996.19,498.96 1999.23,500.78 2001.04,503.81 2001.65,508.05"/>
      </lanes>
   </edge>
   <edge id=":12_0" function="internal">
      <lanes>
         <lane id=":12_0_0" depart="0" maxspeed="13.89" length="5.00" shape="2495.05,504.75 2494.86,503.39 2494.27,502.42 2493.31,501.84 2491.95,501.65"/>
      </lanes>
   </edge>
   <edge id=":12_1" function="internal">
      <lanes>
         <lane id=":12_1_0" depart="0" maxspeed="13.89" length="9.50" shape="2495.05,504.75 2495.05,495.25"/>
      </lanes>
   </edge>
   <edge id=":12_2" function="internal">
      <lanes>
         <lane id=":12_2_0" depart="0" maxspeed="13.89" length="9.50" shape="2498.35,504.75 2498.35,495.25"/>
      </lanes>
   </edge>
   <edge id=":12_3" function="internal">
      <lanes>
         <lane id=":12_3_0" depart="0" maxspeed="13.89" length="9.50" shape="2504.95,495.25 2504.95,504.75"/>
      </lanes>
   </edge>
   <edge id=":12_4" function="internal">
      <lanes>
         <lane id=":12_4_0" depart="0" maxspeed="13.89" length="13.09" shape="2501.65,495.25 2501.04,498.05 2499.23,500.05 2496.19,501.25 2491.95,501.65"/>
      </lanes>
   </edge>
   <edge id=":12_5" function="internal">
      <lanes>
         <lane id=":12_5_0" depart="0" maxspeed="13.89" length="5.00" shape="2491.95,498.35 2493.31,498.16 2494.27,497.58 2494.86,496.61 2495.05,495.25"/>
      </lanes>
   </edge>
   <edge id=":12_6" function="internal">
      <lanes>
         <lane id=":12_6_0" depart="0" maxspeed="13.89" length="13.09" shape="2491.95,498.35 2496.19,498.75 2499.23,499.95 2501.04,501.95 2501.65,504.75"/>
      </lanes>
   </edge>
   <edge id=":13_0" function="internal">
      <lanes>
         <lane id=":13_0_0" depart="0" maxspeed="13.89" length="9.50" shape="-4.95,1004.75 -4.95,995.25"/>
      </lanes>
   </edge>
   <edge id=":13_1" function="internal">
      <lanes>
         <lane id=":13_1_0" depart="0" maxspeed="13.89" length="13.09" shape="-1.65,1004.75 -1.04,1001.95 0.77,999.95 3.81,998.75 8.05,998.35"/>
      </lanes>
   </edge>
   <edge id=":13_2" function="internal">
      <lanes>
         <lane id=":13_2_0" depart="0" maxspeed="13.89" length="5.00" shape="8.05,1001.65 6.69,1001.84 5.73,1002.42 5.14,1003.39 4.95,1004.75"/>
      </lanes>
   </edge>
   <edge id=":13_3" function="internal">
      <lanes>
         <lane id=":13_3_0" depart="0" maxspeed="13.89" length="13.09" shape="8.05,1001.65 3.81,1001.25 0.77,1000.05 -1.04,998.05 -1.65,995.25"/>
      </lanes>
   </edge>
   <edge id=":13_4" function="internal">
      <lanes>
         <lane id=":13_4_0" depart="0" maxspeed="13.89" length="5.00" shape="4.95,995.25 5.14,996.61 5.73,997.57 6.69,998.16 8.05,998.35"/>
      </lanes>
   </edge>
   <edge id=":13_5" function="internal">
      <lanes>
         <lane id=":13_5_0" depart="0" maxspeed="13.89" length="9.50" shape="4.95,995.25 4.95,1004.75"/>
      </lanes>
   </edge>
   <edge id=":13_6" function="internal">
      <lanes>
         <lane id=":13_6_0" depart="0" maxspeed="13.89" length="9.50" shape="1.65,995.25 1.65,1004.75"/>
      </lanes>
   </edge>
   <edge id=":14_0" function="internal">
      <lanes>
         <lane id=":14_0_0" depart="0" maxspeed="13.89" length="5.00" shape="495.05,1004.75 494.86,1003.39 494.27,1002.43 493.31,1001.84 491.95,1001.65"/>
      </lanes>
   </edge>
   <edge id=":14_1" function="internal">
      <lanes>
         <lane id=":14_1_0" depart="0" maxspeed="13.89" length="9.50" shape="495.05,1004.75 495.05,995.25"/>
      </lanes>
   </edge>
   <edge id=":14_2" function="internal">
      <lanes>
         <lane id=":14_2_0" depart="0" maxspeed="13.89" length="9.50" shape="498.35,1004.75 498.35,995.25"/>
      </lanes>
   </edge>
   <edge id=":14_3" function="internal">
      <lanes>
         <lane id=":14_3_0" depart="0" maxspeed="13.89" length="13.09" shape="498.35,1004.75 498.96,1001.95 500.77,999.95 503.81,998.75 508.05,998.35"/>
      </lanes>
   </edge>
   <edge id=":14_4" function="internal">
      <lanes>
         <lane id=":14_4_0" depart="0" maxspeed="13.89" length="5.00" shape="508.05,1001.65 506.69,1001.84 505.73,1002.42 505.14,1003.39 504.95,1004.75"/>
      </lanes>
   </edge>
   <edge id=":14_5" function="internal">
      <lanes>
         <lane id=":14_5_0" depart="0" maxspeed="13.89" length="16.10" shape="508.05,1001.65 504.13,1001.65 500.00,1001.65 495.87,1001.65 491.95,1001.65"/>
      </lanes>
   </edge>
   <edge id=":14_6" function="internal">
      <lanes>
         <lane id=":14_6_0" depart="0" maxspeed="13.89" length="13.09" shape="508.05,1001.65 503.81,1001.25 500.77,1000.05 498.96,998.05 498.35,995.25"/>
      </lanes>
   </edge>
   <edge id=":14_7" function="internal">
      <lanes>
         <lane id=":14_7_0" depart="0" maxspeed="13.89" length="5.00" shape="504.95,995.25 505.14,996.61 505.73,997.57 506.69,998.16 508.05,998.35"/>
      </lanes>
   </edge>
   <edge id=":14_8" function="internal">
      <lanes>
         <lane id=":14_8_0" depart="0" maxspeed="13.89" length="9.50" shape="504.95,995.25 504.95,1004.75"/>
      </lanes>
   </edge>
   <edge id=":14_9" function="internal">
      <lanes>
         <lane id=":14_9_0" depart="0" maxspeed="13.89" length="9.50" shape="501.65,995.25 501.65,1004.75"/>
      </lanes>
   </edge>
   <edge id=":14_10" function="internal">
      <lanes>
         <lane id=":14_10_0" depart="0" maxspeed="13.89" length="13.09" shape="501.65,995.25 501.04,998.05 499.23,1000.05 496.19,1001.25 491.95,1001.65"/>
      </lanes>
   </edge>
   <edge id=":14_11" function="internal">
      <lanes>
         <lane id=":14_11_0" depart="0" maxspeed="13.89" length="5.00" shape="491.95,998.35 493.31,998.16 494.27,997.58 494.86,996.61 495.05,995.25"/>
      </lanes>
   </edge>
   <edge id=":14_12" function="internal">
      <lanes>
         <lane id=":14_12_0" depart="0" maxspeed="13.89" length="16.10" shape="491.95,998.35 495.87,998.35 500.00,998.35 504.13,998.35 508.05,998.35"/>
      </lanes>
   </edge>
   <edge id=":14_13" function="internal">
      <lanes>
         <lane id=":14_13_0" depart="0" maxspeed="13.89" length="13.09" shape="491.95,998.35 496.19,998.75 499.23,999.95 501.04,1001.95 501.65,1004.75"/>
      </lanes>
   </edge>
   <edge id=":15_0" function="internal">
      <lanes>
         <lane id=":15_0_0" depart="0" maxspeed="13.89" length="7.85" shape="995.05,1008.05 994.86,1005.25 994.27,1003.25 993.31,1002.05 991.95,1001.65"/>
      </lanes>
   </edge>
   <edge id=":15_1" function="internal">
      <lanes>
         <lane id=":15_1_0" depart="0" maxspeed="13.89" length="16.51" shape="995.05,1008.05 995.57,1002.77 996.70,998.79 997.83,995.42 998.35,991.95"/>
      </lanes>
   </edge>
   <edge id=":15_2" function="internal">
      <lanes>
         <lane id=":15_2_0" depart="0" maxspeed="13.89" length="20.97" shape="995.05,1008.05 995.86,1002.36 998.30,998.30 1002.36,995.86 1008.05,995.05"/>