<?xml version="1.0"?>

<!-- generated on Wed May 18 10:39:40 2011 by SUMO duarouter Version 0.12.2
<?xml version="1.0" encoding="iso-8859-1"?>

<configuration xmlns:xsi="http://www.w3.org/2001/XMLSchema-instance" xsi:noNamespaceSchemaLocation="http://sumo.sf.net/xsd/duarouterConfiguration.xsd">

    <input>
        <net-file value="../simulations/square/square.net.xml"/>
        <trip-defs value="trips.xml"/>
    </input>

    <output>
        <output-file value="../simulations/square/square.rou.xml"/>
    </output>

</configuration>
-->

<routes>
    <vehicle id="t0_0" depart="0.00">
        <route edges="08to07 07to11 11to15 15to16 16to12 12to11"/>
    </vehicle>
    <vehicle id="t0_1" depart="0.00">
        <route edges="06to02 02to03 03to07"/>
    </vehicle>
    <vehicle id="t0_10" depart="0.00">
        <route edges="02to01 01to05 05to06 06to07 07to08 08to12"/>
    </vehicle>
    <vehicle id="t0_100" depart="0.00">
        <route edges="06to10 10to09 09to13 13to14"/>
    </vehicle>
    <vehicle id="t0_101" depart="0.00">
        <route edges="16to12 12to08 08to04 04to03"/>
    </vehicle>
    <vehicle id="t0_102" depart="0.00">
        <route edges="16to15 15to11 11to07"/>
    </vehicle>
    <vehicle id="t0_103" depart="0.00">
        <route edges="16to15 15to11 11to07 07to06 06to02 02to01"/>
    </vehicle>
    <vehicle id="t0_104" depart="0.00">
        <route edges="15to14 14to10 10to06 06to07 07to08 08to12 12to11"/>
    </vehicle>
    <vehicle id="t0_105" depart="0.00">
        <route edges="05to09 09to10 10to06 06to05"/>
    </vehicle>
    <vehicle id="t0_106" depart="0.00">
        <route edges="16to12 12to11 11to15"/>
    </vehicle>
    <vehicle id="t0_107" depart="0.00">
        <route edges="16to12 12to08 08to07 07to03 03to02"/>
    </vehicle>
    <vehicle id="t0_108" depart="0.00">
        <route edges="02to06 06to10 10to14"/>
    </vehicle>
    <vehicle id="t0_109" depart="0.00">
        <route edges="08to12 12to16 16to15"/>
    </vehicle>
    <vehicle id="t0_11" depart="0.00">
        <route edges="11to07 07to06 06to05 05to09 09to10 10to06"/>
    </vehicle>
    <vehicle id="t0_110" depart="0.00">
        <route edges="11to15 15to14 14to10 10to11 11to07 07to06 06to10"/>
    </vehicle>
    <vehicle id="t0_111" depart="0.00">
        <route edges="07to06 06to10 10to11"/>
    </vehicle>
    <vehicle id="t0_112" depart="0.00">
        <route edges="05to09 09to10 10to06 06to07 07to08 08to12 12to11"/>
    </vehicle>
    <vehicle id="t0_113" depart="0.00">
        <route edges="05to06 06to02 02to01 01to05 05to09"/>
    </vehicle>
    <vehicle id="t0_114" depart="0.00">
        <route edges="01to02 02to06 06to10 10to11 11to07"/>
    </vehicle>
    <vehicle id="t0_115" depart="0.00">
        <route edges="10to09 09to13 13to14 14to15 15to11"/>
    </vehicle>
    <vehicle id="t0_116" depart="0.00">
        <route edges="04to08 08to07 07to06 06to05 05to09 09to10"/>
    </vehicle>
    <vehicle id="t0_117" depart="0.00">
        <route edges="10to11 11to12 12to08 08to07"/>
    </vehicle>
    <vehicle id="t0_118" depart="0.00">
        <route edges="03to07 07to06 06to05"/>
    </vehicle>
    <vehicle id="t0_119" depart="0.00">
        <route edges="09to13 13to14 14to10 10to06 06to02 02to03 03to07"/>
    </vehicle>
    <vehicle id="t0_12" depart="0.00">
        <route edges="07to06 06to10 10to11 11to15 15to14 14to10"/>
    </vehicle>
    <vehicle id="t0_120" depart="0.00">
        <route edges="09to13 13to14 14to15 15to16"/>
    </vehicle>
    <vehicle id="t0_121" depart="0.00">
        <route edges="13to09 09to10 10to11 11to12 12to08 08to07"/>
    </vehicle>
    <vehicle id="t0_122" depart="0.00">
        <route edges="10to06 06to05 05to09 09to10"/>
    </vehicle>
    <vehicle id="t0_123" depart="0.00">
        <route edges="14to10 10to11 11to07"/>
    </vehicle>
    <vehicle id="t0_124" depart="0.00">
        <route edges="07to08 08to12 12to11 11to10 10to14"/>
    </vehicle>
    <vehicle id="t0_125" depart="0.00">
        <route edges="10to14 14to15 15to11 11to10 10to06 06to07 07to11"/>
    </vehicle>
    <vehicle id="t0_126" depart="0.00">
        <route edges="07to03 03to02 02to06"/>
    </vehicle>
    <vehicle id="t0_127" depart="0.00">
        <route edges="08to07 07to06 06to02 02to01 01to05"/>
    </vehicle>
    <vehicle id="t0_128" depart="0.00">
        <route edges="16to15 15to14 14to13 13to09"/>
    </vehicle>
    <vehicle id="t0_129" depart="0.00">
        <route edges="14to15 15to11 11to07 07to06"/>
    </vehicle>
    <vehicle id="t0_13" depart="0.00">
        <route edges="15to11 11to07 07to03 03to02"/>
    </vehicle>
    <vehicle id="t0_130" depart="0.00">
        <route edges="08to12 12to11 11to10 10to09 09to05 05to06"/>
    </vehicle>
    <vehicle id="t0_131" depart="0.00">
        <route edges="01to02 02to03 03to07 07to11 11to15 15to16 16to12"/>
    </vehicle>
    <vehicle id="t0_132" depart="0.00">
        <route edges="03to07 07to11 11to10 10to06 06to07 07to03"/>
    </vehicle>
    <vehicle id="t0_133" depart="0.00">
        <route edges="12to08 08to07 07to03 03to04 04to08"/>
    </vehicle>
    <vehicle id="t0_134" depart="0.00">
        <route edges="07to11 11to10 10to14"/>
    </vehicle>
    <vehicle id="t0_135" depart="0.00">
        <route edges="02to03 03to07 07to06 06to10 10to09"/>
    </vehicle>
    <vehicle id="t0_136" depart="0.00">
        <route edges="09to13 13to14 14to10 10to06 06to02 02to01 01to05"/>
    </vehicle>
    <vehicle id="t0_137" depart="0.00">
        <route edges="04to08 08to12 12to11 11to07 07to08 08to04 04to03"/>
    </vehicle>
    <vehicle id="t0_138" depart="0.00">
        <route edges="11to15 15to14 14to10 10to11 11to12"/>
    </vehicle>
    <vehicle id="t0_139" depart="0.00">
        <route edges="06to10 10to11 11to07 07to06"/>
    </vehicle>
    <vehicle id="t0_14" depart="0.00">
        <route edges="14to13 13to09 09to10 10to11 11to12 12to16"/>
    </vehicle>
    <vehicle id="t0_140" depart="0.00">
        <route edges="14to13 13to09 09to05 05to06 06to07 07to08 08to04"/>
    </vehicle>
    <vehicle id="t0_141" depart="0.00">
        <route edges="02to03 03to07 07to06 06to10 10to14 14to15"/>
    </vehicle>
    <vehicle id="t0_142" depart="0.00">
        <route edges="09to10 10to06 06to05 05to01 01to02"/>
    </vehicle>
    <vehicle id="t0_143" depart="0.00">
        <route edges="03to04 04to08 08to07 07to06 06to02 02to01"/>
    </vehicle>
    <vehicle id="t0_144" depart="0.00">
        <route edges="14to13 13to09 09to10 10to11 11to07"/>
    </vehicle>
    <vehicle id="t0_145" depart="0.00">
        <route edges="11to15 15to16 16to12 12to11"/>
    </vehicle>
    <vehicle id="t0_146" depart="0.00">
        <route edges="10to11 11to07 07to03 03to02 02to06"/>
    </vehicle>
    <vehicle id="t0_147" depart="0.00">
        <route edges="09to05 05to06 06to07 07to11 11to10 10to06"/>
    </vehicle>
    <vehicle id="t0_148" depart="0.00">
        <route edges="03to07 07to06 06to10 10to11 11to07"/>
    </vehicle>
    <vehicle id="t0_149" depart="0.00">
        <route edges="02to01 01to05 05to06 06to07 07to03 03to02"/>
    </vehicle>
    <vehicle id="t0_15" depart="0.00">
        <route edges="11to15 15to14 14to13 13to09 09to10 10to14"/>
    </vehicle>
    <vehicle id="t0_150" depart="0.00">
        <route edges="10to14 14to15 15to11 11to07 07to08 08to04"/>
    </vehicle>
    <vehicle id="t0_151" depart="0.00">
        <route edges="10to09 09to05 05to01 01to02 02to06 06to05 05to09 09to10"/>
    </vehicle>
    <vehicle id="t0_152" depart="0.00">
        <route edges="08to04 04to03 03to07 07to08 08to12"/>
    </vehicle>
    <vehicle id="t0_153" depart="0.00">
        <route edges="12to08 08to07"/>
    </vehicle>
    <vehicle id="t0_154" depart="0.00">
        <route edges="06to07 07to08 08to04 04to03"/>
    </vehicle>
    <vehicle id="t0_155" depart="0.00">
        <route edges="02to03"/>
    </vehicle>
    <vehicle id="t0_156" depart="0.00">
        <route edges="08to04 04to03 03to02 02to06 06to05 05to01"/>
    </vehicle>
    <vehicle id="t0_157" depart="0.00">
        <route edges="06to05 05to09 09to10 10to06 06to07"/>
    </vehicle>
    <vehicle id="t0_158" depart="0.00">
        <route edges="07to08 08to12 12to11 11to07 07to06"/>
    </vehicle>
    <vehicle id="t0_159" depart="0.00">
        <route edges="12to08 08to07 07to06 06to05 05to01"/>
    </vehicle>
    <vehicle id="t0_16" depart="0.00">
        <route edges="01to02 02to03 03to07 07to08 08to04"/>
    </vehicle>
    <vehicle id="t0_160" depart="0.00">
        <route edges="06to05 05to09 09to10 10to06"/>
    </vehicle>
    <vehicle id="t0_161" depart="0.00">
        <route edges="02to06 06to07 07to11 11to15 15to14 14to10"/>
    </vehicle>
    <vehicle id="t0_162" depart="0.00">
        <route edges="11to15 15to14 14to10 10to06 06to07 07to03 03to04 04to08"/>
    </vehicle>
    <vehicle id="t0_163" depart="0.00">
        <route edges="03to04 04to08 08to12 12to11 11to10 10to09 09to13"/>
    </vehicle>
    <vehicle id="t0_164" depart="0.00">
        <route edges="08to04 04to03 03to07 07to06 06to02"/>
    </vehicle>
    <vehicle id="t0_165" depart="0.00">
        <route edges="02to03 03to07 07to11 11to10"/>
    </vehicle>
    <vehicle id="t0_166" depart="0.00">
        <route edges="15to11 11to07 07to08 08to04 04to03"/>
    </vehicle>
    <vehicle id="t0_167" depart="0.00">
        <route edges="12to08 08to07 07to06 06to05 05to01 01to02"/>
    </vehicle>
    <vehicle id="t0_168" depart="0.00">
        <route edges="07to06 06to10 10to11 11to12 12to08 08to07"/>
    </vehicle>
    <vehicle id="t0_169" depart="0.00">
        <route edges="08to12 12to11 11to10"/>
    </vehicle>
    <vehicle id="t0_17" depart="0.00">
        <route edges="10to09 09to13 13to14 14to15 15to16 16to12"/>
    </vehicle>
    <vehicle id="t0_170" depart="0.00">
        <route edges="09to10 10to11 11to12 12to08"/>
    </vehicle>
    <vehicle id="t0_171" depart="0.00">
        <route edges="10to09 09to05 05to01 01to02"/>
    </vehicle>
    <vehicle id="t0_172" depart="0.00">
        <route edges="07to06 06to10 10to14 14to13"/>
    </vehicle>
    <vehicle id="t0_173" depart="0.00">
        <route edges="07to03 03to02 02to06 06to05 05to09 09to10"/>
    </vehicle>
    <vehicle id="t0_174" depart="0.00">
        <route edges="12to11 11to07 07to03 03to04 04to08 08to07"/>
    </vehicle>
    <vehicle id="t0_175" depart="0.00">
        <route edges="10to06 06to07 07to08 08to12 12to11"/>
    </vehicle>
    <vehicle id="t0_176" depart="0.00">
        <route edges="02to01 01to05 05to09 09to10 10to11 11to15 15to16 16to12"/>
    </vehicle>
    <vehicle id="t0_177" depart="0.00">
        <route edges="15to16 16to12 12to11 11to10 10to14 14to13"/>
    </vehicle>
    <vehicle id="t0_178" depart="0.00">
        <route edges="13to09 09to05 05to06 06to07 07to08 08to04"/>
    </vehicle>
    <vehicle id="t0_179" depart="0.00">
        <route edges="16to12 12to08 08to07 07to11 11to12 12to16 16to15"/>
    </vehicle>
    <vehicle id="t0_18" depart="0.00">
        <route edges="12to11 11to10"/>
    </vehicle>
    <vehicle id="t0_180" depart="0.00">
        <route edges="01to02 02to03 03to07 07to11 11to10"/>
    </vehicle>
    <vehicle id="t0_181" depart="0.00">
        <route edges="06to05 05to09 09to10"/>
    </vehicle>
    <vehicle id="t0_182" depart="0.00">
        <route edges="16to12 12to08 08to07 07to11 11to12"/>
    </vehicle>
    <vehicle id="t0_183" depart="0.00">
        <route edges="11to07 07to06 06to05 05to01"/>
    </vehicle>
    <vehicle id="t0_184" depart="0.00">
        <route edges="07to06 06to10 10to09 09to05"/>
    </vehicle>
    <vehicle id="t0_185" depart="0.00">
        <route edges="05to06 06to10 10to14 14to13 13to09 09to10"/>
    </vehicle>
    <vehicle id="t0_186" depart="0.00">
        <route edges="08to04 04to03 03to07 07to11 11to15 15to16 16to12"/>
    </vehicle>
    <vehicle id="t0_187" depart="0.00">
        <route edges="10to09 09to13 13to14 14to15"/>
    </vehicle>
    <vehicle id="t0_188" depart="0.00">
        <route edges="06to05 05to09 09to10 10to11 11to12 12to16"/>
    </vehicle>
    <vehicle id="t0_189" depart="0.00">
        <route edges="12to11 11to10 10to09 09to05 05to06"/>
    </vehicle>
    <vehicle id="t0_19" depart="0.00">
        <route edges="14to13 13to09 09to10 10to11 11to15"/>
    </vehicle>
    <vehicle id="t0_190" depart="0.00">
        <route edges="01to05 05to06 06to07 07to11 11to12 12to08 08to07"/>
    </vehicle>
    <vehicle id="t0_191" depart="0.00">
        <route edges="05to09 09to13 13to14 14to10 10to09 09to05 05to06"/>
    </vehicle>
    <vehicle id="t0_192" depart="0.00">
        <route edges="16to12 12to11 11to15"/>
    </vehicle>
    <vehicle id="t0_193" depart="0.00">
        <route edges="13to09 09to10 10to14 14to15"/>
    </vehicle>
    <vehicle id="t0_194" depart="0.00">
        <route edges="04to03 03to07 07to11 11to12 12to08"/>
    </vehicle>
    <vehicle id="t0_195" depart="0.00">
        <route edges="08to12 12to11 11to15 15to16"/>
    </vehicle>
    <vehicle id="t0_196" depart="0.00">
        <route edges="11to07 07to03 03to04 04to08 08to07"/>
    </vehicle>
    <vehicle id="t0_197" depart="0.00">
        <route edges="07to03 03to04 04to08 08to12 12to16 16to15"/>
    </vehicle>
    <vehicle id="t0_198" depart="0.00">
        <route edges="14to15 15to11 11to10 10to09"/>
    </vehicle>
    <vehicle id="t0_199" depart="0.00">
        <route edges="11to10 10to14 14to15 15to11 11to07"/>
    </vehicle>
    <vehicle id="t0_2" depart="0.00">
        <route edges="05to09 09to10 10to11 11to07 07to06"/>
    </vehicle>
    <vehicle id="t0_20" depart="0.00">
        <route edges="06to07 07to11 11to12"/>
    </vehicle>
    <vehicle id="t0_200" depart="0.00">
        <route edges="08to12 12to11 11to10 10to14"/>
    </vehicle>
    <vehicle id="t0_201" depart="0.00">
        <route edges="04to03 03to07 07to11 11to12 12to08"/>
    </vehicle>
    <vehicle id="t0_202" depart="0.00">
        <route edges="13to14 14to15 15to11 11to07 07to06 06to10"/>
    </vehicle>
    <vehicle id="t0_203" depart="0.00">
        <route edges="08to04 04to03 03to07 07to11 11to15 15to16"/>
    </vehicle>
    <vehicle id="t0_204" depart="0.00">
        <route edges="07to03"/>
    </vehicle>
    <vehicle id="t0_205" depart="0.00">
        <route edges="09to10 10to06 06to05 05to09 09to13"/>
    </vehicle>
    <vehicle id="t0_206" depart="0.00">
        <route edges="15to11 11to07 07to03 03to04"/>
    </vehicle>
    <vehicle id="t0_207" depart="0.00">
        <route edges="06to10 10to14 14to13 13to09"/>
    </vehicle>
    <vehicle id="t0_208" depart="0.00">
        <route edges="03to02 02to06 06to10 10to11 11to07 07to06"/>
    </vehicle>
    <vehicle id="t0_209" depart="0.00">
        <route edges="01to02 02to06 06to10 10to14"/>
    </vehicle>
    <vehicle id="t0_21" depart="0.00">
        <route edges="04to08 08to07 07to06 06to10 10to11"/>
    </vehicle>
    <vehicle id="t0_210" depart="0.00">
        <route edges="13to09 09to05 05to06 06to10 10to09"/>
    </vehicle>
    <vehicle id="t0_211" depart="0.00">
        <route edges="07to11 11to15 15to16 16to12 12to11"/>
    </vehicle>
    <vehicle id="t0_212" depart="0.00">
        <route edges="07to06 06to02 02to01"/>
    </vehicle>
    <vehicle id="t0_213" depart="0.00">
        <route edges="03to02 02to06 06to07 07to03 03to04 04to08"/>
    </vehicle>
    <vehicle id="t0_214" depart="0.00">
        <route edges="04to03 03to07"/>
    </vehicle>
    <vehicle id="t0_215" depart="0.00">
        <route edges="02to06 06to05 05to09 09to10"/>
    </vehicle>
    <vehicle id="t0_216" depart="0.00">
        <route edges="02to06 06to07 07to08 08to12 12to11"/>
    </vehicle>
    <vehicle id="t0_217" depart="0.00">
        <route edges="06to10 10to09"/>
    </vehicle>
    <vehicle id="t0_218" depart="0.00">
        <route edges="08to12 12to11 11to07 07to03"/>
    </vehicle>
    <vehicle id="t0_219" depart="0.00">
        <route edges="13to09 09to05 05to01 01to02 02to06"/>
    </vehicle>
    <vehicle id="t0_22" depart="0.00">
        <route edges="14to13 13to09 09to10 10to11 11to15"/>
    </vehicle>
    <vehicle id="t0_220" depart="0.00">
        <route edges="11to15 15to14 14to10 10to06 06to07"/>
    </vehicle>
    <vehicle id="t0_221" depart="0.00">
        <route edges="03to04 04to08"/>
    </vehicle>
    <vehicle id="t0_222" depart="0.00">
        <route edges="14to15 15to11 11to07 07to03 03to04"/>
    </vehicle>
    <vehicle id="t0_223" depart="0.00">
        <route edges="07to03 03to02 02to06 06to07 07to11 11to15 15to16"/>
    </vehicle>
    <vehicle id="t0_224" depart="0.00">
        <route edges="07to03 03to02 02to06 06to10 10to09 09to13"/>
    </vehicle>
    <vehicle id="t0_225" depart="0.00">
        <route edges="02to03 03to07 07to11 11to15 15to16 16to12"/>
    </vehicle>
    <vehicle id="t0_226" depart="0.00">
        <route edges="12to16 16to15 15to11 11to10"/>
    </vehicle>
    <vehicle id="t0_227" depart="0.00">
        <route edges="10to14 14to15 15to11 11to07 07to08 08to04"/>
    </vehicle>
    <vehicle id="t0_228" depart="0.00">
        <route edges="11to07 07to06 06to10 10to14 14to13"/>
    </vehicle>
    <vehicle id="t0_229" depart="0.00">
        <route edges="08to04 04to03 03to07 07to06 06to02 02to03"/>
    </vehicle>
    <vehicle id="t0_23" depart="0.00">
        <route edges="12to16 16to15 15to11"/>
    </vehicle>
    <vehicle id="t0_230" depart="0.00">
        <route edges="10to06 06to07 07to11 11to12 12to16 16to15"/>
    </vehicle>
    <vehicle id="t0_231" depart="0.00">
        <route edges="15to14 14to10 10to06 06to05 05to01 01to02"/>
    </vehicle>
    <vehicle id="t0_232" depart="0.00">
        <route edges="02to03 03to07 07to06 06to10 10to14 14to13 13to09"/>
    </vehicle>
    <vehicle id="t0_233" depart="0.00">
        <route edges="08to07 07to11 11to15 15to16 16to12"/>
    </vehicle>
    <vehicle id="t0_234" depart="0.00">
        <route edges="04to03 03to07 07to06 06to02"/>
    </vehicle>
    <vehicle id="t0_235" depart="0.00">
        <route edges="10to06 06to02 02to03 03to07 07to06"/>
    </vehicle>
    <vehicle id="t0_236" depart="0.00">
        <route edges="11to12 12to08 08to07 07to03 03to04"/>
    </vehicle>
    <vehicle id="t0_237" depart="0.00">
        <route edges="01to05 05to09 09to10 10to06 06to05 05to01"/>
    </vehicle>
    <vehicle id="t0_238" depart="0.00">
        <route edges="09to13 13to14 14to10"/>
    </vehicle>
    <vehicle id="t0_239" depart="0.00">
        <route edges="03to04 04to08 08to07 07to11 11to12 12to08"/>
    </vehicle>
    <vehicle id="t0_24" depart="0.00">
        <route edges="09to13 13to14 14to15 15to11 11to07 07to03 03to02 02to06"/>
    </vehicle>
    <vehicle id="t0_240" depart="0.00">
        <route edges="12to16 16to15 15to14 14to10 10to06 06to07 07to11"/>
    </vehicle>
    <vehicle id="t0_241" depart="0.00">
        <route edges="05to01 01to02 02to03 03to07 07to11 11to15 15to14 14to10"/>
    </vehicle>
    <vehicle id="t0_242" depart="0.00">
        <route edges="03to02 02to06 06to10 10to09"/>
    </vehicle>
    <vehicle id="t0_243" depart="0.00">
        <route edges="05to06 06to07 07to03"/>
    </vehicle>
    <vehicle id="t0_244" depart="0.00">
        <route edges="05to09 09to10 10to06 06to07 07to03 03to02"/>
    </vehicle>
    <vehicle id="t0_245" depart="0.00">
        <route edges="06to07 07to11 11to10 10to06 06to05 05to01 01to02"/>
    </vehicle>
    <vehicle id="t0_246" depart="0.00">
        <route edges="11to07 07to03 03to04 04to08 08to07"/>
    </vehicle>
    <vehicle id="t0_247" depart="0.00">
        <route edges="07to06 06to02 02to03 03to04 04to08"/>
    </vehicle>
    <vehicle id="t0_248" depart="0.00">
        <route edges="07to11 11to15"/>
    </vehicle>
    <vehicle id="t0_249" depart="0.00">
        <route edges="11to15 15to14 14to10 10to06 06to02"/>
    </vehicle>
    <vehicle id="t0_25" depart="0.00">
        <route edges="13to09 09to10 10to11 11to12"/>
    </vehicle>
    <vehicle id="t0_250" depart="0.00">
        <route edges="15to16 16to12 12to08 08to07 07to06 06to02 02to01"/>
    </vehicle>
    <vehicle id="t0_251" depart="0.00">
        <route edges="11to07 07to03 03to02 02to01"/>
    </vehicle>
    <vehicle id="t0_252" depart="0.00">
        <route edges="07to06"/>
    </vehicle>
    <vehicle id="t0_253" depart="0.00">
        <route edges="02to06 06to10 10to14 14to15"/>
    </vehicle>
    <vehicle id="t0_254" depart="0.00">
        <route edges="11to15 15to14 14to13"/>
    </vehicle>
    <vehicle id="t0_255" depart="0.00">
        <route edges="11to15 15to14 14to10 10to11 11to07 07to06"/>
    </vehicle>
    <vehicle id="t0_256" depart="0.00">
        <route edges="08to07 07to11 11to15 15to14 14to10"/>
    </vehicle>
    <vehicle id="t0_257" depart="0.00">
        <route edges="15to11 11to07"/>
    </vehicle>
    <vehicle id="t0_258" depart="0.00">
        <route edges="01to02 02to03 03to07"/>
    </vehicle>
    <vehicle id="t0_259" depart="0.00">
        <route edges="06to05 05to09 09to10 10to11 11to15"/>
    </vehicle>
    <vehicle id="t0_26" depart="0.00">
        <route edges="03to02 02to06 06to10 10to11 11to07 07to06"/>
    </vehicle>
    <vehicle id="t0_260" depart="0.00">
        <route edges="08to07 07to06 06to10 10to14 14to15 15to11"/>
    </vehicle>
    <vehicle id="t0_261" depart="0.00">
        <route edges="02to06 06to10 10to14 14to15"/>
    </vehicle>
    <vehicle id="t0_262" depart="0.00">
        <route edges="10to14 14to13 13to09 09to05 05to01 01to02"/>
    </vehicle>
    <vehicle id="t0_263" depart="0.00">
        <route edges="09to05 05to06 06to07 07to11 11to12"/>
    </vehicle>
    <vehicle id="t0_264" depart="0.00">
        <route edges="09to13 13to14 14to10 10to09 09to05 05to06"/>
    </vehicle>
    <vehicle id="t0_265" depart="0.00">
        <route edges="03to04 04to08 08to12 12to11 11to10 10to09 09to13"/>
    </vehicle>
    <vehicle id="t0_266" depart="0.00">
        <route edges="07to06 06to10 10to14 14to15"/>
    </vehicle>
    <vehicle id="t0_267" depart="0.00">
        <route edges="07to06 06to10 10to11 11to07 07to03"/>
    </vehicle>
    <vehicle id="t0_268" depart="0.00">
        <route edges="10to06 06to07 07to11 11to15 15to16 16to12"/>
    </vehicle>
    <vehicle id="t0_269" depart="0.00">
        <route edges="02to06 06to10 10to14 14to13 13to09"/>
    </vehicle>
    <vehicle id="t0_27" depart="0.00">
        <route edges="02to03 03to07 07to06 06to10 10to09 09to13 13to14"/>
    </vehicle>
    <vehicle id="t0_270" depart="0.00">
        <route edges="01to05 05to06 06to07 07to11 11to12 12to08 08to07"/>
    </vehicle>
    <vehicle id="t0_271" depart="0.00">
        <route edges="08to07 07to06 06to02 02to03 03to07"/>
    </vehicle>
    <vehicle id="t0_272" depart="0.00">
        <route edges="15to11 11to10 10to09"/>
    </vehicle>
    <vehicle id="t0_273" depart="0.00">
        <route edges="14to10 10to06 06to05 05to09 09to10"/>
    </vehicle>
    <vehicle id="t0_274" depart="0.00">
        <route edges="15to11 11to07 07to06 06to10"/>
    </vehicle>
    <vehicle id="t0_275" depart="0.00">
        <route edges="12to08 08to04"/>
    </vehicle>
    <vehicle id="t0_276" depart="0.00">
        <route edges="01to05 05to09 09to10 10to14 14to15"/>
    </vehicle>
    <vehicle id="t0_277" depart="0.00">
        <route edges="05to01 01to02 02to03 03to07 07to11 11to15 15to16"/>
    </vehicle>
    <vehicle id="t0_278" depart="0.00">
        <route edges="12to16 16to15 15to11 11to07"/>
    </vehicle>
    <vehicle id="t0_279" depart="0.00">
        <route edges="02to06 06to07 07to11 11to12 12to08 08to07"/>
    </vehicle>
    <vehicle id="t0_28" depart="0.00">
        <route edges="03to02 02to06 06to07 07to03 03to04"/>
    </vehicle>
    <vehicle id="t0_280" depart="0.00">
        <route edges="05to09 09to10 10to11 11to07 07to06"/>
    </vehicle>
    <vehicle id="t0_281" depart="0.00">
        <route edges="07to11 11to15 15to16 16to12 12to11"/>
    </vehicle>
    <vehicle id="t0_282" depart="0.00">
        <route edges="15to11 11to10 10to14 14to13"/>
    </vehicle>
    <vehicle id="t0_283" depart="0.00">
        <route edges="06to05 05to09 09to10 10to06 06to07 07to08 08to12"/>
    </vehicle>
    <vehicle id="t0_284" depart="0.00">
        <route edges="02to01 01to05 05to06 06to07 07to11 11to10"/>
    </vehicle>
    <vehicle id="t0_285" depart="0.00">
        <route edges="10to14 14to15 15to16 16to12 12to11 11to15 15to14 14to10"/>
    </vehicle>
    <vehicle id="t0_286" depart="0.00">
        <route edges="14to13 13to09 09to10 10to11 11to15 15to14"/>
    </vehicle>
    <vehicle id="t0_287" depart="0.00">
        <route edges="06to10 10to11 11to07 07to03"/>
    </vehicle>
    <vehicle id="t0_288" depart="0.00">
        <route edges="02to01 01to05 05to06 06to07 07to11 11to10"/>
    </vehicle>
    <vehicle id="t0_289" depart="0.00">
        <route edges="12to11 11to07 07to03 03to02"/>
    </vehicle>
    <vehicle id="t0_29" depart="0.00">
        <route edges="06to02 02to03"/>
    </vehicle>
    <vehicle id="t0_290" depart="0.00">
        <route edges="16to12 12to08 08to07 07to03 03to04"/>
    </vehicle>
    <vehicle id="t0_291" depart="0.00">
        <route edges="09to05 05to06 06to07 07to11 11to15 15to16 16to12"/>
    </vehicle>
    <vehicle id="t0_292" depart="0.00">
        <route edges="13to09 09to10 10to14 14to15 15to11"/>
    </vehicle>
    <vehicle id="t0_293" depart="0.00">
        <route edges="14to13 13to09 09to05 05to06 06to10 10to09 09to13 13to14"/>
    </vehicle>
    <vehicle id="t0_294" depart="0.00">
        <route edges="15to16 16to12 12to11 11to10 10to09 09to05 05to06"/>
    </vehicle>
    <vehicle id="t0_295" depart="0.00">
        <route edges="15to16 16to12 12to08 08to07 07to06 06to02 02to03"/>
    </vehicle>
    <vehicle id="t0_296" depart="0.00">
        <route edges="03to04 04to08 08to07 07to11"/>
    </vehicle>
    <vehicle id="t0_297" depart="0.00">
        <route edges="13to14 14to10 10to09 09to05"/>
    </vehicle>
    <vehicle id="t0_298" depart="0.00">
        <route edges="12to11 11to10 10to09 09to05"/>
    </vehicle>
    <vehicle id="t0_299" depart="0.00">
        <route edges="09to05 05to06 06to07 07to08"/>
    </vehicle>
    <vehicle id="t0_3" depart="0.00">
        <route edges="07to11 11to10 10to09"/>
    </vehicle>
    <vehicle id="t0_30" depart="0.00">
        <route edges="11to07 07to06 06to02 02to03"/>
    </vehicle>
    <vehicle id="t0_300" depart="0.00">
        <route edges="06to10 10to11 11to07 07to06 06to05"/>
    </vehicle>
    <vehicle id="t0_301" depart="0.00">
        <route edges="12to16 16to15 15to14 14to10 10to09 09to05"/>
    </vehicle>
    <vehicle id="t0_302" depart="0.00">
        <route edges="02to03 03to07 07to08 08to04 04to03"/>
    </vehicle>
    <vehicle id="t0_303" depart="0.00">
        <route edges="03to02 02to06 06to10 10to11"/>
    </vehicle>
    <vehicle id="t0_304" depart="0.00">
        <route edges="14to13 13to09 09to05 05to06 06to10 10to09 09to13 13to14"/>
    </vehicle>
    <vehicle id="t0_305" depart="0.00">
        <route edges="01to02 02to03 03to07 07to11 11to12 12to16 16to15"/>
    </vehicle>
    <vehicle id="t0_306" depart="0.00">
        <route edges="05to09 09to10 10to06 06to05 05to01 01to02"/>
    </vehicle>
    <vehicle id="t0_307" depart="0.00">
        <route edges="02to01 01to05 05to06 06to07 07to03 03to04"/>
    </vehicle>
    <vehicle id="t0_308" depart="0.00">
        <route edges="02to06 06to10 10to09 09to05 05to06"/>
    </vehicle>
    <vehicle id="t0_309" depart="0.00">
        <route edges="10to11 11to07 07to06 06to05 05to01 01to02"/>
    </vehicle>
    <vehicle id="t0_31" depart="0.00">
        <route edges="03to07 07to11 11to10"/>
    </vehicle>
    <vehicle id="t0_310" depart="0.00">
        <route edges="01to02 02to06 06to10 10to14 14to13 13to09"/>
    </vehicle>
    <vehicle id="t0_311" depart="0.00">
        <route edges="13to14 14to15 15to16 16to12 12to11"/>
    </vehicle>
    <vehicle id="t0_312" depart="0.00">
        <route edges="14to10 10to11 11to15 15to14 14to13 13to09"/>
    </vehicle>
    <vehicle id="t0_313" depart="0.00">
        <route edges="15to11 11to07"/>
    </vehicle>
    <vehicle id="t0_314" depart="0.00">
        <route edges="07to08 08to12 12to11 11to07 07to06 06to05 05to01"/>
    </vehicle>
    <vehicle id="t0_315" depart="0.00">
        <route edges="12to16 16to15 15to14 14to10 10to11"/>
    </vehicle>
    <vehicle id="t0_316" depart="0.00">
        <route edges="11to15 15to14 14to10 10to06 06to07 07to03 03to02 02to06"/>
    </vehicle>
    <vehicle id="t0_317" depart="0.00">
        <route edges="03to07 07to11 11to12 12to16"/>
    </vehicle>
    <vehicle id="t0_318" depart="0.00">
        <route edges="01to05"/>
    </vehicle>
    <vehicle id="t0_319" depart="0.00">
        <route edges="03to02 02to06 06to10"/>
    </vehicle>
    <vehicle id="t0_32" depart="0.00">
        <route edges="13to09 09to05 05to06 06to07 07to11 11to10"/>
    </vehicle>
    <vehicle id="t0_320" depart="0.00">
        <route edges="08to12 12to11 11to07 07to03"/>
    </vehicle>
    <vehicle id="t0_321" depart="0.00">
        <route edges="01to02 02to06 06to10 10to09 09to13"/>
    </vehicle>
    <vehicle id="t0_322" depart="0.00">
        <route edges="08to07 07to06 06to02 02to01"/>
    </vehicle>
    <vehicle id="t0_323" depart="0.00">
        <route edges="05to01 01to02 02to03 03to07 07to06 06to02"/>
    </vehicle>
    <vehicle id="t0_324" depart="0.00">
        <route edges="09to13 13to14 14to10 10to09"/>
    </vehicle>
    <vehicle id="t0_325" depart="0.00">
        <route edges="06to07 07to11 11to12 12to08"/>
    </vehicle>
    <vehicle id="t0_326" depart="0.00">
        <route edges="02to06 06to07 07to11 11to12 12to16"/>
    </vehicle>
    <vehicle id="t0_327" depart="0.00">
        <route edges="07to03 03to02 02to06 06to10 10to09 09to13 13to14"/>
    </vehicle>
    <vehicle id="t0_328" depart="0.00">
        <route edges="11to15 15to14 14to10 10to11 11to12 12to16"/>
    </vehicle>