<?xml version="1.0"?>

<!-- generated on Sun 01 May 2011 05:47:25 PM WEST by SUMO gui Version 0.12.2
<?xml version="1.0" encoding="iso-8859-1"?>

<configuration xmlns:xsi="http://www.w3.org/2001/XMLSchema-instance" xsi:noNamespaceSchemaLocation="http://sumo.sf.net/xsd/sumo-gui.exeConfiguration.xsd">

    <input>
        <net-file value="../simulations/square/square.net.xml"/>
        <route-files value="../simulations/square/square.rou.xml"/>
    </input>

    <output>
        <emissions-output value="../simulations/square/square.out.emissions.xml"/>
        <tripinfo-output value="../simulations/square/square.out.tripinfo.xml"/>
    </output>

    <time>
        <begin value="0"/>
        <end value="3600"/>
    </time>

    <processing>
        <time-to-teleport value="7200"/>
    </processing>

    <traci_server>
        <remote-port value="8814"/>
    </traci_server>

    <gui_only>
        <gui-settings-file value=""/>
    </gui_only>

</configuration>
-->

<emissions>
    <emission-state time="0.00" loaded="1000" emitted="48" running="48" waiting="952" ended="0" meanWaitingTime="0.00" meanTravelTime="-1.00" duration="0" />
    <emission-state time="1.00" loaded="1000" emitted="50" running="48" waiting="950" ended="2" meanWaitingTime="-1.00" meanTravelTime="1.00" duration="94" />
    <emission-state time="2.00" loaded="1000" emitted="51" running="49" waiting="949" ended="2" meanWaitingTime="-1.00" meanTravelTime="1.00" duration="24" />
    <emission-state time="3.00" loaded="1000" emitted="96" running="94" waiting="904" ended="2" meanWaitingTime="-1.00" meanTravelTime="1.00" duration="17" />
    <emission-state time="4.00" loaded="1000" emitted="99" running="96" waiting="901" ended="3" meanWaitingTime="-1.00" meanTravelTime="1.00" duration="18" />
    <emission-state time="5.00" loaded="1000" emitted="102" running="99" waiting="898" ended="3" meanWaitingTime="-1.00" meanTravelTime="1.00" duration="20" />
    <emission-state time="6.00" loaded="1000" emitted="144" running="141" waiting="856" ended="3" meanWaitingTime="-1.00" meanTravelTime="1.00" duration="21" />
    <emission-state time="7.00" loaded="1000" emitted="150" running="144" waiting="850" ended="6" meanWaitingTime="-1.00" meanTravelTime="1.00" duration="17" />
    <emission-state time="8.00" loaded="1000" emitted="153" running="147" waiting="847" ended="6" meanWaitingTime="-1.00" meanTravelTime="1.00" duration="18" />
    <emission-state time="9.00" loaded="1000" emitted="192" running="186" waiting="808" ended="6" meanWaitingTime="-1.00" meanTravelTime="1.00" duration="18" />
    <emission-state time="10.00" loaded="1000" emitted="200" running="192" waiting="800" ended="8" meanWaitingTime="-1.00" meanTravelTime="1.00" duration="18" />
    <emission-state time="11.00" loaded="1000" emitted="204" running="196" waiting="796" ended="8" meanWaitingTime="-1.00" meanTravelTime="1.00" duration="17" />
    <emission-state time="12.00" loaded="1000" emitted="240" running="232" waiting="760" ended="8" meanWaitingTime="-1.00" meanTravelTime="1.00" duration="16" />
    <emission-state time="13.00" loaded="1000" emitted="248" running="240" waiting="752" ended="8" meanWaitingTime="-1.00" meanTravelTime="1.00" duration="18" />
    <emission-state time="14.00" loaded="1000" emitted="252" running="244" waiting="748" ended="8" meanWaitingTime="-1.00" meanTravelTime="1.00" duration="16" />
    <emission-state time="15.00" loaded="1000" emitted="288" running="280" waiting="712" ended="8" meanWaitingTime="-1.00" meanTravelTime="1.00" duration="15" />
    <emission-state time="16.00" loaded="1000" emitted="296" running="288" waiting="704" ended="8" meanWaitingTime="-1.00" meanTravelTime="1.00" duration="15" />
    <emission-state time="17.00" loaded="1000" emitted="300" running="292" waiting="700" ended="8" meanWaitingTime="-1.00" meanTravelTime="1.00" duration="15" />
    <emission-state time="18.00" loaded="1000" emitted="336" running="328" waiting="664" ended="8" meanWaitingTime="-1.00" meanTravelTime="1.00" duration="18" />
    <emission-state time="19.00" loaded="1000" emitted="344" running="336" waiting="656" ended="8" meanWaitingTime="-1.00" meanTravelTime="1.00" duration="15" />
    <emission-state time="20.00" loaded="1000" emitted="349" running="341" waiting="651" ended="8" meanWaitingTime="-1.00" meanTravelTime="1.00" duration="14" />
    <emission-state time="21.00" loaded="1000" emitted="384" running="376" waiting="616" ended="8" meanWaitingTime="-1.00" meanTravelTime="1.00" duration="14" />
    <emission-state time="22.00" loaded="1000" emitted="392" running="384" waiting="608" ended="8" meanWaitingTime="-1.00" meanTravelTime="1.00" duration="16" />
    <emission-state time="23.00" loaded="1000" emitted="397" running="389" waiting="603" ended="8" meanWaitingTime="-1.00" meanTravelTime="1.00" duration="19" />
    <emission-state time="24.00" loaded="1000" emitted="432" running="424" waiting="568" ended="8" meanWaitingTime="-1.00" meanTravelTime="1.00" duration="14" />
    <emission-state time="25.00" loaded="1000" emitted="440" running="432" waiting="560" ended="8" meanWaitingTime="-1.00" meanTravelTime="1.00" duration="14" />
    <emission-state time="26.00" loaded="1000" emitted="445" running="437" waiting="555" ended="8" meanWaitingTime="-1.00" meanTravelTime="1.00" duration="14" />
    <emission-state time="27.00" loaded="1000" emitted="480" running="472" waiting="520" ended="8" meanWaitingTime="-1.00" meanTravelTime="1.00" duration="12" />
    <emission-state time="28.00" loaded="1000" emitted="489" running="480" waiting="511" ended="9" meanWaitingTime="-1.00" meanTravelTime="1.00" duration="15" />
    <emission-state time="29.00" loaded="1000" emitted="494" running="485" waiting="506" ended="9" meanWaitingTime="-1.00" meanTravelTime="1.00" duration="12" />
    <emission-state time="30.00" loaded="1000" emitted="528" running="519" waiting="472" ended="9" meanWaitingTime="-1.00" meanTravelTime="1.00" duration="14" />
    <emission-state time="31.00" loaded="1000" emitted="537" running="528" waiting="463" ended="9" meanWaitingTime="-1.00" meanTravelTime="1.00" duration="13" />
    <emission-state time="32.00" loaded="1000" emitted="543" running="533" waiting="457" ended="10" meanWaitingTime="-1.00" meanTravelTime="1.00" duration="11" />
    <emission-state time="33.00" loaded="1000" emitted="577" running="567" waiting="423" ended="10" meanWaitingTime="-1.00" meanTravelTime="1.00" duration="12" />
    <emission-state time="34.00" loaded="1000" emitted="587" running="575" waiting="413" ended="12" meanWaitingTime="-1.00" meanTravelTime="1.00" duration="11" />
    <emission-state time="35.00" loaded="1000" emitted="587" running="575" waiting="413" ended="12" meanWaitingTime="-1.00" meanTravelTime="1.00" duration="12" />
    <emission-state time="36.00" loaded="1000" emitted="590" running="578" waiting="410" ended="12" meanWaitingTime="-1.00" meanTravelTime="1.00" duration="11" />
    <emission-state time="37.00" loaded="1000" emitted="591" running="579" waiting="409" ended="12" meanWaitingTime="-1.00" meanTravelTime="1.00" duration="15" />
    <emission-state time="38.00" loaded="1000" emitted="591" running="579" waiting="409" ended="12" meanWaitingTime="-1.00" meanTravelTime="1.00" duration="13" />
    <emission-state time="39.00" loaded="1000" emitted="591" running="579" waiting="409" ended="12" meanWaitingTime="-1.00" meanTravelTime="1.00" duration="11" />
    <emission-state time="40.00" loaded="1000" emitted="596" running="584" waiting="404" ended="12" meanWaitingTime="-1.00" meanTravelTime="1.00" duration="13" />
    <emission-state time="41.00" loaded="1000" emitted="596" running="584" waiting="404" ended="12" meanWaitingTime="-1.00" meanTravelTime="1.00" duration="14" />
    <emission-state time="42.00" loaded="1000" emitted="600" running="588" waiting="400" ended="12" meanWaitingTime="-1.00" meanTravelTime="1.00" duration="13" />
    <emission-state time="43.00" loaded="1000" emitted="609" running="596" waiting="391" ended="13" meanWaitingTime="-1.00" meanTravelTime="4.00" duration="12" />
    <emission-state time="44.00" loaded="1000" emitted="610" running="597" waiting="390" ended="13" meanWaitingTime="-1.00" meanTravelTime="4.00" duration="12" />
    <emission-state time="45.00" loaded="1000" emitted="615" running="602" waiting="385" ended="13" meanWaitingTime="-1.00" meanTravelTime="4.00" duration="11" />
    <emission-state time="46.00" loaded="1000" emitted="620" running="607" waiting="380" ended="13" meanWaitingTime="-1.00" meanTravelTime="4.00" duration="15" />
    <emission-state time="47.00" loaded="1000" emitted="623" running="610" waiting="377" ended="13" meanWaitingTime="-1.00" meanTravelTime="4.00" duration="13" />
    <emission-state time="48.00" loaded="1000" emitted="628" running="615" waiting="372" ended="13" meanWaitingTime="-1.00" meanTravelTime="4.00" duration="13" />
    <emission-state time="49.00" loaded="1000" emitted="637" running="624" waiting="363" ended="13" meanWaitingTime="-1.00" meanTravelTime="4.00" duration="13" />
    <emission-state time="50.00" loaded="1000" emitted="644" running="631" waiting="356" ended="13" meanWaitingTime="-1.00" meanTravelTime="4.00" duration="12" />
    <emission-state time="51.00" loaded="1000" emitted="649" running="636" waiting="351" ended="13" meanWaitingTime="-1.00" meanTravelTime="4.00" duration="10" />
    <emission-state time="52.00" loaded="1000" emitted="655" running="641" waiting="345" ended="14" meanWaitingTime="-1.00" meanTravelTime="6.57" duration="10" />
    <emission-state time="53.00" loaded="1000" emitted="662" running="647" waiting="338" ended="15" meanWaitingTime="-1.00" meanTravelTime="8.80" duration="12" />
    <emission-state time="54.00" loaded="1000" emitted="669" running="654" waiting="331" ended="15" meanWaitingTime="-1.00" meanTravelTime="8.80" duration="11" />
    <emission-state time="55.00" loaded="1000" emitted="675" running="660" waiting="325" ended="15" meanWaitingTime="-1.00" meanTravelTime="8.80" duration="12" />
    <emission-state time="56.00" loaded="1000" emitted="680" running="663" waiting="320" ended="17" meanWaitingTime="-1.00" meanTravelTime="12.47" duration="12" />
    <emission-state time="57.00" loaded="1000" emitted="687" running="669" waiting="313" ended="18" meanWaitingTime="-1.00" meanTravelTime="14.00" duration="12" />
    <emission-state time="58.00" loaded="1000" emitted="695" running="675" waiting="305" ended="20" meanWaitingTime="-1.00" meanTravelTime="14.65" duration="12" />
    <emission-state time="59.00" loaded="1000" emitted="700" running="680" waiting="300" ended="20" meanWaitingTime="-1.00" meanTravelTime="14.65" duration="10" />
    <emission-state time="60.00" loaded="1000" emitted="705" running="684" waiting="295" ended="21" meanWaitingTime="-1.00" meanTravelTime="15.85" duration="10" />
    <emission-state time="61.00" loaded="1000" emitted="711" running="690" waiting="289" ended="21" meanWaitingTime="-1.00" meanTravelTime="15.85" duration="9" />
    <emission-state time="62.00" loaded="1000" emitted="719" running="698" waiting="281" ended="21" meanWaitingTime="-1.00" meanTravelTime="15.85" duration="11" />
    <emission-state time="63.00" loaded="1000" emitted="725" running="704" waiting="275" ended="21" meanWaitingTime="-1.00" meanTravelTime="15.85" duration="11" />
    <emission-state time="64.00" loaded="1000" emitted="730" running="709" waiting="270" ended="21" meanWaitingTime="-1.00" meanTravelTime="15.85" duration="9" />
    <emission-state time="65.00" loaded="1000" emitted="737" running="716" waiting="263" ended="21" meanWaitingTime="-1.00" meanTravelTime="15.85" duration="11" />
    <emission-state time="66.00" loaded="1000" emitted="745" running="723" waiting="255" ended="22" meanWaitingTime="-1.00" meanTravelTime="17.18" duration="10" />
    <emission-state time="67.00" loaded="1000" emitted="749" running="726" waiting="251" ended="23" meanWaitingTime="-1.00" meanTravelTime="18.17" duration="9" />
    <emission-state time="68.00" loaded="1000" emitted="754" running="730" waiting="246" ended="24" meanWaitingTime="-1.00" meanTravelTime="19.25" duration="9" />
    <emission-state time="69.00" loaded="1000" emitted="763" running="738" waiting="237" ended="25" meanWaitingTime="-1.00" meanTravelTime="18.52" duration="8" />
    <emission-state time="70.00" loaded="1000" emitted="767" running="742" waiting="233" ended="25" meanWaitingTime="-1.00" meanTravelTime="18.52" duration="10" />
    <emission-state time="71.00" loaded="1000" emitted="770" running="745" waiting="230" ended="25" meanWaitingTime="-1.00" meanTravelTime="18.52" duration="9" />
    <emission-state time="72.00" loaded="1000" emitted="778" running="753" waiting="222" ended="25" meanWaitingTime="-1.00" meanTravelTime="18.52" duration="9" />
    <emission-state time="73.00" loaded="1000" emitted="782" running="756" waiting="218" ended="26" meanWaitingTime="-1.00" meanTravelTime="19.34" duration="9" />
    <emission-state time="74.00" loaded="1000" emitted="791" running="764" waiting="209" ended="27" meanWaitingTime="-1.00" meanTravelTime="21.37" duration="9" />
    <emission-state time="75.00" loaded="1000" emitted="798" running="770" waiting="202" ended="28" meanWaitingTime="-1.00" meanTravelTime="22.32" duration="8" />
    <emission-state time="76.00" loaded="1000" emitted="798" running="769" waiting="202" ended="29" meanWaitingTime="-1.00" meanTravelTime="24.06" duration="8" />
    <emission-state time="77.00" loaded="1000" emitted="802" running="773" waiting="198" ended="29" meanWaitingTime="-1.00" meanTravelTime="24.06" duration="8" />
    <emission-state time="78.00" loaded="1000" emitted="813" running="783" waiting="187" ended="30" meanWaitingTime="-1.00" meanTravelTime="25.86" duration="9" />
    <emission-state time="79.00" loaded="1000" emitted="813" running="780" waiting="187" ended="33" meanWaitingTime="-1.00" meanTravelTime="28.24" duration="8" />
    <emission-state time="80.00" loaded="1000" emitted="814" running="780" waiting="186" ended="34" meanWaitingTime="-1.00" meanTravelTime="28.79" duration="9" />
    <emission-state time="81.00" loaded="1000" emitted="820" running="785" waiting="180" ended="35" meanWaitingTime="-1.00" meanTravelTime="30.28" duration="9" />
    <emission-state time="82.00" loaded="1000" emitted="822" running="786" waiting="178" ended="36" meanWaitingTime="-1.00" meanTravelTime="29.47" duration="8" />
    <emission-state time="83.00" loaded="1000" emitted="826" running="790" waiting="174" ended="36" meanWaitingTime="-1.00" meanTravelTime="29.47" duration="8" />
    <emission-state time="84.00" loaded="1000" emitted="830" running="793" waiting="170" ended="37" meanWaitingTime="-1.00" meanTravelTime="30.86" duration="8" />
    <emission-state time="85.00" loaded="1000" emitted="831" running="794" waiting="169" ended="37" meanWaitingTime="-1.00" meanTravelTime="30.86" duration="7" />
    <emission-state time="86.00" loaded="1000" emitted="835" running="798" waiting="165" ended="37" meanWaitingTime="-1.00" meanTravelTime="30.86" duration="8" />
    <emission-state time="87.00" loaded="1000" emitted="841" running="803" waiting="159" ended="38" meanWaitingTime="-1.00" meanTravelTime="32.10" duration="8" />
    <emission-state time="88.00" loaded="1000" emitted="844" running="804" waiting="156" ended="40" meanWaitingTime="-1.00" meanTravelTime="32.42" duration="8" />
    <emission-state time="89.00" loaded="1000" emitted="847" running="806" waiting="153" ended="41" meanWaitingTime="-1.00" meanTravelTime="33.73" duration="7" />
    <emission-state time="90.00" loaded="1000" emitted="852" running="811" waiting="148" ended="41" meanWaitingTime="-1.00" meanTravelTime="33.73" duration="8" />
    <emission-state time="91.00" loaded="1000" emitted="854" running="813" waiting="146" ended="41" meanWaitingTime="-1.00" meanTravelTime="33.73" duration="7" />
    <emission-state time="92.00" loaded="1000" emitted="855" running="814" waiting="145" ended="41" meanWaitingTime="-1.00" meanTravelTime="33.73" duration="9" />
    <emission-state time="93.00" loaded="1000" emitted="859" running="818" waiting="141" ended="41" meanWaitingTime="-1.00" meanTravelTime="33.73" duration="7" />
    <emission-state time="94.00" loaded="1000" emitted="863" running="820" waiting="137" ended="43" meanWaitingTime="-1.00" meanTravelTime="32.20" duration="7" />
    <emission-state time="95.00" loaded="1000" emitted="865" running="821" waiting="135" ended="44" meanWaitingTime="-1.00" meanTravelTime="33.34" duration="7" />
    <emission-state time="96.00" loaded="1000" emitted="869" running="823" waiting="131" ended="46" meanWaitingTime="-1.00" meanTravelTime="35.32" duration="7" />
    <emission-state time="97.00" loaded="1000" emitted="869" running="822" waiting="131" ended="47" meanWaitingTime="-1.00" meanTravelTime="36.25" duration="7" />
    <emission-state time="98.00" loaded="1000" emitted="871" running="824" waiting="129" ended="47" meanWaitingTime="-1.00" meanTravelTime="36.25" duration="7" />
    <emission-state time="99.00" loaded="1000" emitted="874" running="827" waiting="126" ended="47" meanWaitingTime="-1.00" meanTravelTime="36.25" duration="7" />
    <emission-state time="100.00" loaded="1000" emitted="875" running="826" waiting="125" ended="49" meanWaitingTime="-1.00" meanTravelTime="38.18" duration="7" />
    <emission-state time="101.00" loaded="1000" emitted="876" running="827" waiting="124" ended="49" meanWaitingTime="-1.00" meanTravelTime="38.18" duration="8" />
    <emission-state time="102.00" loaded="1000" emitted="880" running="829" waiting="120" ended="51" meanWaitingTime="-1.00" meanTravelTime="39.92" duration="7" />
    <emission-state time="103.00" loaded="1000" emitted="881" running="829" waiting="119" ended="52" meanWaitingTime="-1.00" meanTravelTime="41.13" duration="7" />
    <emission-state time="104.00" loaded="1000" emitted="882" running="829" waiting="118" ended="53" meanWaitingTime="-1.00" meanTravelTime="41.81" duration="7" />
    <emission-state time="105.00" loaded="1000" emitted="885" running="831" waiting="115" ended="54" meanWaitingTime="-1.00" meanTravelTime="42.81" duration="7" />
    <emission-state time="106.00" loaded="1000" emitted="885" running="831" waiting="115" ended="54" meanWaitingTime="-1.00" meanTravelTime="42.81" duration="7" />
    <emission-state time="107.00" loaded="1000" emitted="888" running="834" waiting="112" ended="54" meanWaitingTime="-1.00" meanTravelTime="42.81" duration="6" />
    <emission-state time="108.00" loaded="1000" emitted="892" running="836" waiting="108" ended="56" meanWaitingTime="-1.00" meanTravelTime="44.55" duration="7" />
    <emission-state time="109.00" loaded="1000" emitted="893" running="836" waiting="107" ended="57" meanWaitingTime="-1.00" meanTravelTime="45.57" duration="8" />
    <emission-state time="110.00" loaded="1000" emitted="896" running="838" waiting="104" ended="58" meanWaitingTime="-1.00" meanTravelTime="46.68" duration="7" />
    <emission-state time="111.00" loaded="1000" emitted="901" running="843" waiting="99" ended="58" meanWaitingTime="-1.00" meanTravelTime="46.68" duration="7" />
    <emission-state time="112.00" loaded="1000" emitted="902" running="844" waiting="98" ended="58" meanWaitingTime="-1.00" meanTravelTime="46.68" duration="6" />
    <emission-state time="113.00" loaded="1000" emitted="903" running="844" waiting="97" ended="59" meanWaitingTime="-1.00" meanTravelTime="47.23" duration="6" />
    <emission-state time="114.00" loaded="1000" emitted="906" running="847" waiting="94" ended="59" meanWaitingTime="-1.00" meanTravelTime="47.23" duration="7" />
    <emission-state time="115.00" loaded="1000" emitted="907" running="848" waiting="93" ended="59" meanWaitingTime="-1.00" meanTravelTime="47.23" duration="5" />
    <emission-state time="116.00" loaded="1000" emitted="908" running="849" waiting="92" ended="59" meanWaitingTime="-1.00" meanTravelTime="47.23" duration="6" />
    <emission-state time="117.00" loaded="1000" emitted="910" running="851" waiting="90" ended="59" meanWaitingTime="-1.00" meanTravelTime="47.23" duration="7" />
    <emission-state time="118.00" loaded="1000" emitted="911" running="851" waiting="89" ended="60" meanWaitingTime="-1.00" meanTravelTime="48.13" duration="6" />
    <emission-state time="119.00" loaded="1000" emitted="914" running="853" waiting="86" ended="61" meanWaitingTime="-1.00" meanTravelTime="49.29" duration="7" />
    <emission-state time="120.00" loaded="1000" emitted="916" running="855" waiting="84" ended="61" meanWaitingTime="-1.00" meanTravelTime="49.29" duration="6" />
    <emission-state time="121.00" loaded="1000" emitted="916" running="854" waiting="84" ended="62" meanWaitingTime="-1.00" meanTravelTime="50.33" duration="6" />
    <emission-state time="122.00" loaded="1000" emitted="920" running="857" waiting="80" ended="63" meanWaitingTime="-1.00" meanTravelTime="50.76" duration="6" />
    <emission-state time="123.00" loaded="1000" emitted="921" running="857" waiting="79" ended="64" meanWaitingTime="-1.00" meanTravelTime="51.84" duration="6" />
    <emission-state time="124.00" loaded="1000" emitted="922" running="857" waiting="78" ended="65" meanWaitingTime="-1.00" meanTravelTime="52.49" duration="5" />
    <emission-state time="125.00" loaded="1000" emitted="926" running="861" waiting="74" ended="65" meanWaitingTime="-1.00" meanTravelTime="52.49" duration="6" />
    <emission-state time="126.00" loaded="1000" emitted="927" running="862" waiting="73" ended="65" meanWaitingTime="-1.00" meanTravelTime="52.49" duration="6" />
    <emission-state time="127.00" loaded="1000" emitted="929" running="864" waiting="71" ended="65" meanWaitingTime="-1.00" meanTravelTime="52.49" duration="5" />
    <emission-state time="128.00" loaded="1000" emitted="931" running="866" waiting="69" ended="65" meanWaitingTime="-1.00" meanTravelTime="52.49" duration="6" />
    <emission-state time="129.00" loaded="1000" emitted="931" running="866" waiting="69" ended="65" meanWaitingTime="-1.00" meanTravelTime="52.49" duration="5" />
    <emission-state time="130.00" loaded="1000" emitted="931" running="865" waiting="69" ended="66" meanWaitingTime="-1.00" meanTravelTime="53.51" duration="6" />
    <emission-state time="131.00" loaded="1000" emitted="934" running="866" waiting="66" ended="68" meanWaitingTime="-1.00" meanTravelTime="55.57" duration="5" />
    <emission-state time="132.00" loaded="1000" emitted="935" running="867" waiting="65" ended="68" meanWaitingTime="-1.00" meanTravelTime="55.57" duration="5" />
    <emission-state time="133.00" loaded="1000" emitted="935" running="866" waiting="65" ended="69" meanWaitingTime="-1.00" meanTravelTime="56.39" duration="5" />
    <emission-state time="134.00" loaded="1000" emitted="937" running="868" waiting="63" ended="69" meanWaitingTime="-1.00" meanTravelTime="56.39" duration="6" />
    <emission-state time="135.00" loaded="1000" emitted="938" running="868" waiting="62" ended="70" meanWaitingTime="-1.00" meanTravelTime="57.34" duration="6" />
    <emission-state time="136.00" loaded="1000" emitted="939" running="866" waiting="61" ended="73" meanWaitingTime="-1.00" meanTravelTime="59.61" duration="6" />
    <emission-state time="137.00" loaded="1000" emitted="940" running="865" waiting="60" ended="75" meanWaitingTime="-1.00" meanTravelTime="61.02" duration="6" />
    <emission-state time="138.00" loaded="1000" emitted="941" running="865" waiting="59" ended="76" meanWaitingTime="-1.00" meanTravelTime="61.96" duration="6" />
    <emission-state time="139.00" loaded="1000" emitted="941" running="861" waiting="59" ended="80" meanWaitingTime="-1.00" meanTravelTime="63.36" duration="6" />
    <emission-state time="140.00" loaded="1000" emitted="943" running="862" waiting="57" ended="81" meanWaitingTime="-1.00" meanTravelTime="64.01" duration="6" />
    <emission-state time="141.00" loaded="1000" emitted="945" running="863" waiting="55" ended="82" meanWaitingTime="-1.00" meanTravelTime="64.80" duration="6" />
    <emission-state time="142.00" loaded="1000" emitted="946" running="862" waiting="54" ended="84" meanWaitingTime="-1.00" meanTravelTime="66.25" duration="6" />
    <emission-state time="143.00" loaded="1000" emitted="949" running="865" waiting="51" ended="84" meanWaitingTime="-1.00" meanTravelTime="66.25" duration="5" />
    <emission-state time="144.00" loaded="1000" emitted="950" running="866" waiting="50" ended="84" meanWaitingTime="-1.00" meanTravelTime="66.25" duration="5" />
    <emission-state time="145.00" loaded="1000" emitted="950" running="866" waiting="50" ended="84" meanWaitingTime="-1.00" meanTravelTime="66.25" duration="6" />
    <emission-state time="146.00" loaded="1000" emitted="952" running="868" waiting="48" ended="84" meanWaitingTime="-1.00" meanTravelTime="66.25" duration="5" />
    <emission-state time="147.00" loaded="1000" emitted="953" running="868" waiting="47" ended="85" meanWaitingTime="-1.00" meanTravelTime="66.81" duration="6" />
    <emission-state time="148.00" loaded="1000" emitted="954" running="866" waiting="46" ended="88" meanWaitingTime="-1.00" meanTravelTime="69.03" duration="6" />
    <emission-state time="149.00" loaded="1000" emitted="956" running="868" waiting="44" ended="88" meanWaitingTime="-1.00" meanTravelTime="69.03" duration="5" />
    <emission-state time="150.00" loaded="1000" emitted="957" running="869" waiting="43" ended="88" meanWaitingTime="-1.00" meanTravelTime="69.03" duration="5" />
    <emission-state time="151.00" loaded="1000" emitted="958" running="870" waiting="42" ended="88" meanWaitingTime="-1.00" meanTravelTime="69.03" duration="6" />
    <emission-state time="152.00" loaded="1000" emitted="959" running="870" waiting="41" ended="89" meanWaitingTime="-1.00" meanTravelTime="69.76" duration="5" />
    <emission-state time="153.00" loaded="1000" emitted="960" running="870" waiting="40" ended="90" meanWaitingTime="-1.00" meanTravelTime="70.52" duration="5" />
    <emission-state time="154.00" loaded="1000" emitted="961" running="870" waiting="39" ended="91" meanWaitingTime="-1.00" meanTravelTime="70.71" duration="5" />
    <emission-state time="155.00" loaded="1000" emitted="962" running="870" waiting="38" ended="92" meanWaitingTime="-1.00" meanTravelTime="71.56" duration="6" />
    <emission-state time="156.00" loaded="1000" emitted="964" running="871" waiting="36" ended="93" meanWaitingTime="-1.00" meanTravelTime="72.37" duration="5" />
    <emission-state time="157.00" loaded="1000" emitted="966" running="870" waiting="34" ended="96" meanWaitingTime="-1.00" meanTravelTime="73.52" duration="5" />
    <emission-state time="158.00" loaded="1000" emitted="967" running="871" waiting="33" ended="96" meanWaitingTime="-1.00" meanTravelTime="73.52" duration="6" />
    <emission-state time="159.00" loaded="1000" emitted="969" running="872" waiting="31" ended="97" meanWaitingTime="-1.00" meanTravelTime="74.40" duration="5" />
    <emission-state time="160.00" loaded="1000" emitted="971" running="874" waiting="29" ended="97" meanWaitingTime="-1.00" meanTravelTime="74.40" duration="5" />
    <emission-state time="161.00" loaded="1000" emitted="973" running="873" waiting="27" ended="100" meanWaitingTime="-1.00" meanTravelTime="75.16" duration="5" />
    <emission-state time="162.00" loaded="1000" emitted="974" running="872" waiting="26" ended="102" meanWaitingTime="-1.00" meanTravelTime="76.55" duration="5" />
    <emission-state time="163.00" loaded="1000" emitted="975" running="873" waiting="25" ended="102" meanWaitingTime="-1.00" meanTravelTime="76.55" duration="5" />
    <emission-state time="164.00" loaded="1000" emitted="976" running="874" waiting="24" ended="102" meanWaitingTime="-1.00" meanTravelTime="76.55" duration="5" />
    <emission-state time="165.00" loaded="1000" emitted="977" running="875" waiting="23" ended="102" meanWaitingTime="-1.00" meanTravelTime="76.55" duration="5" />
    <emission-state time="166.00" loaded="1000" emitted="977" running="875" waiting="23" ended="102" meanWaitingTime="-1.00" meanTravelTime="76.55" duration="5" />
    <emission-state time="167.00" loaded="1000" emitted="980" running="878" waiting="20" ended="102" meanWaitingTime="-1.00" meanTravelTime="76.55" duration="4" />
    <emission-state time="168.00" loaded="1000" emitted="982" running="880" waiting="18" ended="102" meanWaitingTime="-1.00" meanTravelTime="76.55" duration="5" />
    <emission-state time="169.00" loaded="1000" emitted="982" running="880" waiting="18" ended="102" meanWaitingTime="-1.00" meanTravelTime="76.55" duration="4" />
    <emission-state time="170.00" loaded="1000" emitted="983" running="880" waiting="17" ended="103" meanWaitingTime="-1.00" meanTravelTime="77.32" duration="5" />
    <emission-state time="171.00" loaded="1000" emitted="983" running="878" waiting="17" ended="105" meanWaitingTime="-1.00" meanTravelTime="78.66" duration="5" />
    <emission-state time="172.00" loaded="1000" emitted="983" running="875" waiting="17" ended="108" meanWaitingTime="-1.00" meanTravelTime="80.75" duration="4" />
    <emission-state time="173.00" loaded="1000" emitted="984" running="876" waiting="16" ended="108" meanWaitingTime="-1.00" meanTravelTime="80.75" duration="5" />
    <emission-state time="174.00" loaded="1000" emitted="984" running="876" waiting="16" ended="108" meanWaitingTime="-1.00" meanTravelTime="80.75" duration="5" />
    <emission-state time="175.00" loaded="1000" emitted="985" running="875" waiting="15" ended="110" meanWaitingTime="-1.00" meanTravelTime="82.10" duration="4" />
    <emission-state time="176.00" loaded="1000" emitted="986" running="876" waiting="14" ended="110" meanWaitingTime="-1.00" meanTravelTime="82.10" duration="5" />
    <emission-state time="177.00" loaded="1000" emitted="986" running="876" waiting="14" ended="110" meanWaitingTime="-1.00" meanTravelTime="82.10" duration="4" />