<edges>
    <edge fromnode="01" id="01to02" tonode="02" nolanes="1" speed="13.89" />
    <edge fromnode="02" id="02to01" tonode="01" nolanes="1" speed="13.89" />
    <edge fromnode="02" id="02to03" tonode="03" nolanes="1" speed="13.89" />
    <edge fromnode="03" id="03to02" tonode="02" nolanes="1" speed="13.89" />
    <edge fromnode="03" id="03to04" tonode="04" nolanes="1" speed="13.89" />
    <edge fromnode="04" id="04to03" tonode="03" nolanes="1" speed="13.89" />
    <edge fromnode="05" id="05to06" tonode="06" nolanes="2" speed="13.89" />
    <edge fromnode="06" id="06to05" tonode="05" nolanes="2" speed="13.89" />
    <edge fromnode="06" id="06to07" tonode="07" nolanes="2" speed="13.89" />
    <edge fromnode="07" id="07to06" tonode="06" nolanes="2" speed="13.89" />
    <edge fromnode="07" id="07to08" tonode="08" nolanes="2" speed="13.89" />
    <edge fromnode="08" id="08to07" tonode="07" nolanes="2" speed="13.89" />
    <edge fromnode="09" id="09to10" tonode="10" nolanes="2" speed="13.89" />
    <edge fromnode="10" id="10to09" tonode="09" nolanes="2" speed="13.89" />
    <edge fromnode="10" id="10to11" tonode="11" nolanes="2" speed="13.89" />
    <edge fromnode="11" id="11to10" tonode="10" nolanes="2" speed="13.89" />
    <edge fromnode="11" id="11to12" tonode="12" nolanes="2" speed="13.89" />
    <edge fromnode="12" id="12to11" tonode="11" nolanes="2" speed="13.89" />
    <edge fromnode="13" id="13to14" tonode="14" nolanes="1" speed="13.89" />
    <edge fromnode="14" id="14to13" tonode="13" nolanes="1" speed="13.89" />
    <edge fromnode="14" id="14to15" tonode="15" nolanes="1" speed="13.89" />
    <edge fromnode="15" id="15to14" tonode="14" nolanes="1" speed="13.89" />
    <edge fromnode="15" id="15to16" tonode="16" nolanes="1" speed="13.89" />
    <edge fromnode="16" id="16to15" tonode="15" nolanes="1" speed="13.89" />
    <edge fromnode="01" id="01to05" tonode="05" nolanes="1" speed="13.89" />
    <edge fromnode="05" id="05to01" tonode="01" nolanes="1" speed="13.89" />
    <edge fromnode="02" id="02to06" tonode="06" nolanes="2" speed="13.89" />
    <edge fromnode="06" id="06to02" tonode="02" nolanes="2" speed="13.89" />
    <edge fromnode="03" id="03to07" tonode="07" nolanes="2" speed="13.89" />
    <edge fromnode="07" id="07to03" tonode="03" nolanes="2" speed="13.89" />
    <edge fromnode="04" id="04to08" tonode="08" nolanes="1" speed="13.89" />
    <edge fromnode="08" id="08to04" tonode="04" nolanes="1" speed="13.89" />
    <edge fromnode="05" id="05to09" tonode="09" nolanes="1" speed="13.89" />
    <edge fromnode="09" id="09to05" tonode="05" nolanes="1" speed="13.89" />
    <edge fromnode="06" id="06to10" tonode="10" nolanes="2" speed="13.89" />
    <edge fromnode="10" id="10to06" tonode="06" nolanes="2" speed="13.89" />
    <edge fromnode="07" id="07to11" tonode="11" nolanes="2" speed="13.89" />
    <edge fromnode="11" id="11to07" tonode="07" nolanes="2" speed="13.89" />
    <edge fromnode="08" id="08to12" tonode="12" nolanes="1" speed="13.89" />
    <edge fromnode="12" id="12to08" tonode="08" nolanes="1" speed="13.89" />
    <edge fromnode="09" id="09to13" tonode="13" nolanes="1" speed="13.89" />
    <edge fromnode="13" id="13to09" tonode="09" nolanes="1" speed="13.89" />
    <edge fromnode="10" id="10to14" tonode="14" nolanes="2" speed="13.89" />
    <edge fromnode="14" id="14to10" tonode="10" nolanes="2" speed="13.89" />
    <edge fromnode="11" id="11to15" tonode="15" nolanes="2" speed="13.89" />
    <edge fromnode="15" id="15to11" tonode="11" nolanes="2" speed="13.89" />
    <edge fromnode="12" id="12to16" tonode="16" nolanes="1" speed="13.89" />
    <edge fromnode="16" id="16to12" tonode="12" nolanes="1" speed="13.89" />
</edges>

