<edges>
    <edge fromnode="01" id="01to02" tonode="02" nolanes="2" speed="13.89" />
    <edge fromnode="02" id="02to01" tonode="01" nolanes="2" speed="13.89" />
    <edge fromnode="02" id="02to03" tonode="03" nolanes="2" speed="13.89" />
    <edge fromnode="03" id="03to02" tonode="02" nolanes="2" speed="13.89" />
    <edge fromnode="03" id="03to04" tonode="04" nolanes="2" speed="13.89" />
    <edge fromnode="04" id="04to03" tonode="03" nolanes="2" speed="13.89" />
    <edge fromnode="04" id="04to05" tonode="05" nolanes="2" speed="13.89" />
    <edge fromnode="05" id="05to04" tonode="04" nolanes="2" speed="13.89" />
    <edge fromnode="05" id="05to06" tonode="06" nolanes="2" speed="13.89" />
    <edge fromnode="06" id="06to05" tonode="05" nolanes="2" speed="13.89" />
    <edge fromnode="07" id="07to08" tonode="08" nolanes="1" speed="13.89" />
    <edge fromnode="08" id="08to07" tonode="07" nolanes="1" speed="13.89" />
    <edge fromnode="08" id="08to09" tonode="09" nolanes="2" speed="13.89" />
    <edge fromnode="09" id="09to08" tonode="08" nolanes="2" speed="13.89" />
    <edge fromnode="09" id="09to10" tonode="10" nolanes="2" speed="13.89" />
    <edge fromnode="10" id="10to09" tonode="09" nolanes="2" speed="13.89" />
    <edge fromnode="10" id="10to11" tonode="11" nolanes="2" speed="13.89" />
    <edge fromnode="11" id="11to10" tonode="10" nolanes="2" speed="13.89" />
    <edge fromnode="11" id="11to12" tonode="12" nolanes="1" speed="13.89" />
    <edge fromnode="12" id="12to11" tonode="11" nolanes="1" speed="13.89" />
    <edge fromnode="13" id="13to14" tonode="14" nolanes="1" speed="13.89" />
    <edge fromnode="14" id="14to13" tonode="13" nolanes="1" speed="13.89" />
    <edge fromnode="14" id="14to15" tonode="15" nolanes="1" speed="13.89" />
    <edge fromnode="15" id="15to14" tonode="14" nolanes="1" speed="13.89" />
    <edge fromnode="15" id="15to16" tonode="16" nolanes="2" speed="13.89" />
    <edge fromnode="16" id="16to15" tonode="15" nolanes="2" speed="13.89" />
    <edge fromnode="16" id="16to17" tonode="17" nolanes="1" speed="13.89" />
    <edge fromnode="17" id="17to16" tonode="16" nolanes="1" speed="13.89" />
    <edge fromnode="17" id="17to18" tonode="18" nolanes="1" speed="13.89" />
    <edge fromnode="18" id="18to17" tonode="17" nolanes="1" speed="13.89" />
    <edge fromnode="19" id="19to20" tonode="20" nolanes="1" speed="13.89" />
    <edge fromnode="20" id="20to19" tonode="19" nolanes="1" speed="13.89" />
    <edge fromnode="20" id="20to21" tonode="21" nolanes="1" speed="13.89" />
    <edge fromnode="21" id="21to20" tonode="20" nolanes="1" speed="13.89" />
    <edge fromnode="21" id="21to22" tonode="22" nolanes="2" speed="13.89" />
    <edge fromnode="22" id="22to21" tonode="21" nolanes="2" speed="13.89" />
    <edge fromnode="22" id="22to23" tonode="23" nolanes="1" speed="13.89" />
    <edge fromnode="23" id="23to22" tonode="22" nolanes="1" speed="13.89" />
    <edge fromnode="23" id="23to24" tonode="24" nolanes="1" speed="13.89" />
    <edge fromnode="24" id="24to23" tonode="23" nolanes="1" speed="13.89" />
    <edge fromnode="25" id="25to26" tonode="26" nolanes="1" speed="13.89" />
    <edge fromnode="26" id="26to25" tonode="25" nolanes="1" speed="13.89" />
    <edge fromnode="26" id="26to27" tonode="27" nolanes="2" speed="13.89" />
    <edge fromnode="27" id="27to26" tonode="26" nolanes="2" speed="13.89" />
    <edge fromnode="27" id="27to28" tonode="28" nolanes="2" speed="13.89" />
    <edge fromnode="28" id="28to27" tonode="27" nolanes="2" speed="13.89" />
    <edge fromnode="28" id="28to29" tonode="29" nolanes="2" speed="13.89" />
    <edge fromnode="29" id="29to28" tonode="28" nolanes="2" speed="13.89" />
    <edge fromnode="29" id="29to30" tonode="30" nolanes="1" speed="13.89" />
    <edge fromnode="30" id="30to29" tonode="29" nolanes="1" speed="13.89" />
    <edge fromnode="31" id="31to32" tonode="32" nolanes="2" speed="13.89" />
    <edge fromnode="32" id="32to31" tonode="31" nolanes="2" speed="13.89" />
    <edge fromnode="32" id="32to33" tonode="33" nolanes="2" speed="13.89" />
    <edge fromnode="33" id="33to32" tonode="32" nolanes="2" speed="13.89" />
    <edge fromnode="33" id="33to34" tonode="34" nolanes="2" speed="13.89" />
    <edge fromnode="34" id="34to33" tonode="33" nolanes="2" speed="13.89" />
    <edge fromnode="34" id="34to35" tonode="35" nolanes="2" speed="13.89" />
    <edge fromnode="35" id="35to34" tonode="34" nolanes="2" speed="13.89" />
    <edge fromnode="35" id="35to36" tonode="36" nolanes="2" speed="13.89" />
    <edge fromnode="36" id="36to35" tonode="35" nolanes="2" speed="13.89" />
    <edge fromnode="01" id="01to07" tonode="07" nolanes="2" speed="13.89" />
    <edge fromnode="07" id="07to01" tonode="01" nolanes="2" speed="13.89" />
    <edge fromnode="02" id="02to08" tonode="08" nolanes="1" speed="13.89" />
    <edge fromnode="08" id="08to02" tonode="02" nolanes="1" speed="13.89" />
    <edge fromnode="03" id="03to09" tonode="09" nolanes="1" speed="13.89" />
    <edge fromnode="09" id="09to03" tonode="03" nolanes="1" speed="13.89" />
    <edge fromnode="04" id="04to10" tonode="10" nolanes="1" speed="13.89" />
    <edge fromnode="10" id="10to04" tonode="04" nolanes="1" speed="13.89" />
    <edge fromnode="05" id="05to11" tonode="11" nolanes="1" speed="13.89" />
    <edge fromnode="11" id="11to05" tonode="05" nolanes="1" speed="13.89" />
    <edge fromnode="06" id="06to12" tonode="12" nolanes="2" speed="13.89" />
    <edge fromnode="12" id="12to06" tonode="06" nolanes="2" speed="13.89" />
    <edge fromnode="07" id="07to13" tonode="13" nolanes="2" speed="13.89" />
    <edge fromnode="13" id="13to07" tonode="07" nolanes="2" speed="13.89" />
    <edge fromnode="08" id="08to14" tonode="14" nolanes="2" speed="13.89" />
    <edge fromnode="14" id="14to08" tonode="08" nolanes="2" speed="13.89" />
    <edge fromnode="09" id="09to15" tonode="15" nolanes="1" speed="13.89" />
    <edge fromnode="15" id="15to09" tonode="09" nolanes="1" speed="13.89" />
    <edge fromnode="10" id="10to16" tonode="16" nolanes="1" speed="13.89" />
    <edge fromnode="16" id="16to10" tonode="10" nolanes="1" speed="13.89" />
    <edge fromnode="11" id="11to17" tonode="17" nolanes="2" speed="13.89" />
    <edge fromnode="17" id="17to11" tonode="11" nolanes="2" speed="13.89" />
    <edge fromnode="12" id="12to18" tonode="18" nolanes="2" speed="13.89" />
    <edge fromnode="18" id="18to12" tonode="12" nolanes="2" speed="13.89" />
    <edge fromnode="13" id="13to19" tonode="19" nolanes="2" speed="13.89" />
    <edge fromnode="19" id="19to13" tonode="13" nolanes="2" speed="13.89" />
    <edge fromnode="14" id="14to20" tonode="20" nolanes="2" speed="13.89" />
    <edge fromnode="20" id="20to14" tonode="14" nolanes="2" speed="13.89" />
    <edge fromnode="15" id="15to21" tonode="21" nolanes="2" speed="13.89" />
    <edge fromnode="21" id="21to15" tonode="15" nolanes="2" speed="13.89" />
    <edge fromnode="16" id="16to22" tonode="22" nolanes="2" speed="13.89" />
    <edge fromnode="22" id="22to16" tonode="16" nolanes="2" speed="13.89" />
    <edge fromnode="17" id="17to23" tonode="23" nolanes="2" speed="13.89" />
    <edge fromnode="23" id="23to17" tonode="17" nolanes="2" speed="13.89" />
    <edge fromnode="18" id="18to24" tonode="24" nolanes="2" speed="13.89" />
    <edge fromnode="24" id="24to18" tonode="18" nolanes="2" speed="13.89" />
    <edge fromnode="19" id="19to25" tonode="25" nolanes="2" speed="13.89" />
    <edge fromnode="25" id="25to19" tonode="19" nolanes="2" speed="13.89" />
    <edge fromnode="20" id="20to26" tonode="26" nolanes="2" speed="13.89" />
    <edge fromnode="26" id="26to20" tonode="20" nolanes="2" speed="13.89" />
    <edge fromnode="21" id="21to27" tonode="27" nolanes="1" speed="13.89" />
    <edge fromnode="27" id="27to21" tonode="21" nolanes="1" speed="13.89" />
    <edge fromnode="22" id="22to28" tonode="28" nolanes="1" speed="13.89" />
    <edge fromnode="28" id="28to22" tonode="22" nolanes="1" speed="13.89" />
    <edge fromnode="23" id="23to29" tonode="29" nolanes="2" speed="13.89" />
    <edge fromnode="29" id="29to23" tonode="23" nolanes="2" speed="13.89" />
    <edge fromnode="24" id="24to30" tonode="30" nolanes="2" speed="13.89" />
    <edge fromnode="30" id="30to24" tonode="24" nolanes="2" speed="13.89" />
    <edge fromnode="25" id="25to31" tonode="31" nolanes="2" speed="13.89" />
    <edge fromnode="31" id="31to25" tonode="25" nolanes="2" speed="13.89" />
    <edge fromnode="26" id="26to32" tonode="32" nolanes="1" speed="13.89" />
    <edge fromnode="32" id="32to26" tonode="26" nolanes="1" speed="13.89" />
    <edge fromnode="27" id="27to33" tonode="33" nolanes="1" speed="13.89" />
    <edge fromnode="33" id="33to27" tonode="27" nolanes="1" speed="13.89" />
    <edge fromnode="28" id="28to34" tonode="34" nolanes="1" speed="13.89" />
    <edge fromnode="34" id="34to28" tonode="28" nolanes="1" speed="13.89" />
    <edge fromnode="29" id="29to35" tonode="35" nolanes="1" speed="13.89" />
    <edge fromnode="35" id="35to29" tonode="29" nolanes="1" speed="13.89" />
    <edge fromnode="30" id="30to36" tonode="36" nolanes="2" speed="13.89" />
    <edge fromnode="36" id="36to30" tonode="30" nolanes="2" speed="13.89" />
</edges>

