<?xml version="1.0"?>

<!-- generated on Wed Apr 27 09:44:27 2011 by SUMO netconvert Version 0.12.2
<?xml version="1.0" encoding="iso-8859-1"?>

<configuration xmlns:xsi="http://www.w3.org/2001/XMLSchema-instance" xsi:noNamespaceSchemaLocation="http://sumo.sf.net/xsd/netconvertConfiguration.xsd">

    <input>
        <xml-node-files value="radialandring.nod.xml"/>
        <xml-edge-files value="radialandring.edg.xml"/>
    </input>

    <output>
        <output-file value="radialandring.net.xml"/>
    </output>

    <processing>
        <no-turnarounds value="true"/>
    </processing>

</configuration>
-->

<net>

   <location netOffset="1250.00,1250.00" convBoundary="0.00,0.00,2500.00,2500.00" origBoundary="-1250.00,-1250.00,1250.00,1250.00" projParameter="!"/>

   <edge id=":01_0" function="internal">
      <lanes>
         <lane id=":01_0_0" depart="0" maxspeed="13.89" length="5.56" shape="1248.35,9.94 1248.13,8.33 1247.45,7.39 1246.33,7.12 1244.75,7.53"/>
      </lanes>
   </edge>
   <edge id=":01_1" function="internal">
      <lanes>
         <lane id=":01_1_0" depart="0" maxspeed="13.89" length="16.20" shape="1248.35,9.94 1248.94,4.75 1250.71,1.61 1253.65,0.50 1257.77,1.43"/>
      </lanes>
   </edge>
   <edge id=":01_2" function="internal">
      <lanes>
         <lane id=":01_2_0" depart="0" maxspeed="13.89" length="5.56" shape="1255.25,7.53 1253.67,7.12 1252.55,7.39 1251.87,8.33 1251.65,9.94"/>
      </lanes>
   </edge>
   <edge id=":01_3" function="internal">
      <lanes>
         <lane id=":01_3_0" depart="0" maxspeed="13.89" length="10.97" shape="1255.25,7.53 1252.24,6.40 1250.00,6.03 1247.76,6.40 1244.75,7.53"/>
      </lanes>
   </edge>
   <edge id=":01_4" function="internal">
      <lanes>
         <lane id=":01_4_0" depart="0" maxspeed="13.89" length="13.61" shape="1256.51,4.48 1252.78,3.08 1250.00,2.61 1247.22,3.08 1243.49,4.48"/>
      </lanes>
   </edge>
   <edge id=":01_5" function="internal">
      <lanes>
         <lane id=":01_5_0" depart="0" maxspeed="13.89" length="18.89" shape="1240.96,-1.62 1246.14,-3.56 1250.00,-4.21 1253.86,-3.56 1259.04,-1.62"/>
      </lanes>
   </edge>
   <edge id=":01_6" function="internal">
      <lanes>
         <lane id=":01_6_0" depart="0" maxspeed="13.89" length="16.20" shape="1242.23,1.43 1246.35,0.50 1249.29,1.61 1251.06,4.75 1251.65,9.94"/>
      </lanes>
   </edge>
   <edge id=":02_0" function="internal">
      <lanes>
         <lane id=":02_0_0" depart="0" maxspeed="13.89" length="5.56" shape="1248.35,322.44 1248.13,320.83 1247.45,319.89 1246.33,319.62 1244.75,320.03"/>
      </lanes>
   </edge>
   <edge id=":02_1" function="internal">
      <lanes>
         <lane id=":02_1_0" depart="0" maxspeed="13.89" length="17.18" shape="1248.35,322.44 1248.35,318.35 1248.35,313.85 1248.35,309.35 1248.35,305.26"/>
      </lanes>
   </edge>
   <edge id=":02_2" function="internal">
      <lanes>
         <lane id=":02_2_0" depart="0" maxspeed="13.89" length="16.20" shape="1248.35,322.44 1248.94,317.25 1250.71,314.11 1253.65,313.00 1257.77,313.93"/>
      </lanes>
   </edge>
   <edge id=":02_3" function="internal">
      <lanes>
         <lane id=":02_3_0" depart="0" maxspeed="13.89" length="5.56" shape="1255.25,320.03 1253.67,319.62 1252.55,319.89 1251.87,320.83 1251.65,322.44"/>
      </lanes>
   </edge>
   <edge id=":02_4" function="internal">
      <lanes>
         <lane id=":02_4_0" depart="0" maxspeed="13.89" length="10.77" shape="1255.25,320.03 1252.62,319.22 1250.00,318.94 1247.38,319.22 1244.75,320.03"/>
      </lanes>
   </edge>
   <edge id=":02_5" function="internal">
      <lanes>
         <lane id=":02_5_0" depart="0" maxspeed="13.89" length="13.36" shape="1256.51,316.98 1253.26,315.97 1250.00,315.63 1246.74,315.97 1243.49,316.98"/>
      </lanes>
   </edge>
   <edge id=":02_6" function="internal">
      <lanes>
         <lane id=":02_6_0" depart="0" maxspeed="13.89" length="15.23" shape="1256.51,316.98 1252.94,314.98 1250.39,312.36 1248.86,309.12 1248.35,305.26"/>
      </lanes>
   </edge>
   <edge id=":02_7" function="internal">
      <lanes>
         <lane id=":02_7_0" depart="0" maxspeed="13.89" length="9.63" shape="1251.65,305.26 1252.11,306.57 1253.50,307.95 1255.81,309.39 1259.04,310.89"/>
      </lanes>
   </edge>
   <edge id=":02_8" function="internal">
      <lanes>
         <lane id=":02_8_0" depart="0" maxspeed="13.89" length="17.18" shape="1251.65,305.26 1251.65,309.35 1251.65,313.85 1251.65,318.35 1251.65,322.44"/>
      </lanes>
   </edge>
   <edge id=":02_9" function="internal">
      <lanes>
         <lane id=":02_9_0" depart="0" maxspeed="13.89" length="15.23" shape="1251.65,305.26 1251.14,309.12 1249.61,312.36 1247.06,314.98 1243.49,316.98"/>
      </lanes>
   </edge>
   <edge id=":02_10" function="internal">
      <lanes>
         <lane id=":02_10_0" depart="0" maxspeed="13.89" length="9.63" shape="1240.96,310.89 1244.19,309.39 1246.50,307.95 1247.89,306.57 1248.35,305.26"/>
      </lanes>
   </edge>
   <edge id=":02_11" function="internal">
      <lanes>
         <lane id=":02_11_0" depart="0" maxspeed="13.89" length="18.55" shape="1240.96,310.89 1245.48,309.48 1250.00,309.01 1254.52,309.48 1259.04,310.89"/>
      </lanes>
   </edge>
   <edge id=":02_12" function="internal">
      <lanes>
         <lane id=":02_12_0" depart="0" maxspeed="13.89" length="15.96" shape="1242.23,313.93 1246.11,312.73 1250.00,312.32 1253.89,312.73 1257.77,313.93"/>
      </lanes>
   </edge>
   <edge id=":02_13" function="internal">
      <lanes>
         <lane id=":02_13_0" depart="0" maxspeed="13.89" length="16.20" shape="1242.23,313.93 1246.35,313.00 1249.29,314.11 1251.06,317.25 1251.65,322.44"/>
      </lanes>
   </edge>
   <edge id=":03_0" function="internal">
      <lanes>
         <lane id=":03_0_0" depart="0" maxspeed="13.89" length="5.56" shape="1248.35,634.94 1248.13,633.33 1247.45,632.39 1246.33,632.12 1244.75,632.53"/>
      </lanes>
   </edge>
   <edge id=":03_1" function="internal">
      <lanes>
         <lane id=":03_1_0" depart="0" maxspeed="13.89" length="17.18" shape="1248.35,634.94 1248.35,630.85 1248.35,626.35 1248.35,621.85 1248.35,617.76"/>
      </lanes>
   </edge>
   <edge id=":03_2" function="internal">
      <lanes>
         <lane id=":03_2_0" depart="0" maxspeed="13.89" length="3.38" shape="1248.35,634.94 1248.56,633.11"/>
      </lanes>
   </edge>
   <edge id=":03_14" function="internal">
      <lanes>
         <lane id=":03_14_0" depart="0" maxspeed="13.89" length="12.82" shape="1248.56,633.11 1248.94,629.75 1250.71,626.61 1253.65,625.50 1257.77,626.44"/>
      </lanes>
   </edge>
   <edge id=":03_3" function="internal">
      <lanes>
         <lane id=":03_3_0" depart="0" maxspeed="13.89" length="5.56" shape="1255.25,632.53 1253.67,632.12 1252.55,632.39 1251.87,633.33 1251.65,634.94"/>
      </lanes>
   </edge>
   <edge id=":03_4" function="internal">
      <lanes>
         <lane id=":03_4_0" depart="0" maxspeed="13.89" length="10.77" shape="1255.25,632.53 1252.62,631.72 1250.00,631.45 1247.38,631.72 1244.75,632.53"/>
      </lanes>
   </edge>
   <edge id=":03_5" function="internal">
      <lanes>
         <lane id=":03_5_0" depart="0" maxspeed="13.89" length="13.36" shape="1256.51,629.48 1253.26,628.47 1250.00,628.14 1246.74,628.47 1243.49,629.48"/>
      </lanes>
   </edge>
   <edge id=":03_6" function="internal">
      <lanes>
         <lane id=":03_6_0" depart="0" maxspeed="13.89" length="7.74" shape="1256.51,629.48 1250.39,624.86"/>
      </lanes>
   </edge>
   <edge id=":03_15" function="internal">
      <lanes>
         <lane id=":03_15_0" depart="0" maxspeed="13.89" length="7.49" shape="1250.39,624.86 1248.86,621.62 1248.35,617.76"/>
      </lanes>
   </edge>
   <edge id=":03_7" function="internal">
      <lanes>
         <lane id=":03_7_0" depart="0" maxspeed="13.89" length="9.63" shape="1251.65,617.76 1252.11,619.07 1253.50,620.45 1255.81,621.89 1259.04,623.39"/>
      </lanes>
   </edge>
   <edge id=":03_8" function="internal">
      <lanes>
         <lane id=":03_8_0" depart="0" maxspeed="13.89" length="17.18" shape="1251.65,617.76 1251.65,621.85 1251.65,626.35 1251.65,630.85 1251.65,634.94"/>
      </lanes>
   </edge>
   <edge id=":03_9" function="internal">
      <lanes>
         <lane id=":03_9_0" depart="0" maxspeed="13.89" length="3.91" shape="1251.65,617.76 1249.62,624.85"/>
      </lanes>
   </edge>
   <edge id=":03_16" function="internal">
      <lanes>
         <lane id=":03_16_0" depart="0" maxspeed="13.89" length="11.32" shape="1249.62,624.85 1249.61,624.86 1247.06,627.48 1243.49,629.48"/>
      </lanes>
   </edge>
   <edge id=":03_10" function="internal">
      <lanes>
         <lane id=":03_10_0" depart="0" maxspeed="13.89" length="9.63" shape="1240.96,623.39 1244.19,621.89 1246.50,620.45 1247.89,619.07 1248.35,617.76"/>
      </lanes>
   </edge>
   <edge id=":03_11" function="internal">
      <lanes>
         <lane id=":03_11_0" depart="0" maxspeed="13.89" length="18.55" shape="1240.96,623.39 1245.48,621.98 1250.00,621.51 1254.52,621.98 1259.04,623.39"/>
      </lanes>
   </edge>
   <edge id=":03_12" function="internal">
      <lanes>
         <lane id=":03_12_0" depart="0" maxspeed="13.89" length="15.96" shape="1242.23,626.44 1246.11,625.23 1250.00,624.82 1253.89,625.23 1257.77,626.44"/>
      </lanes>
   </edge>
   <edge id=":03_13" function="internal">
      <lanes>
         <lane id=":03_13_0" depart="0" maxspeed="13.89" length="9.14" shape="1242.23,626.44 1246.35,625.50 1250.19,628.21"/>
      </lanes>
   </edge>
   <edge id=":03_17" function="internal">
      <lanes>
         <lane id=":03_17_0" depart="0" maxspeed="13.89" length="7.05" shape="1250.19,628.21 1251.06,629.75 1251.65,634.94"/>
      </lanes>
   </edge>
   <edge id=":04_0" function="internal">
      <lanes>
         <lane id=":04_0_0" depart="0" maxspeed="13.89" length="4.11" shape="1252.00,943.71 1251.00,943.40 1250.00,943.29 1249.00,943.40 1248.00,943.71"/>
      </lanes>
   </edge>
   <edge id=":04_1" function="internal">
      <lanes>
         <lane id=":04_1_0" depart="0" maxspeed="13.89" length="12.20" shape="1253.28,940.67 1251.12,939.24 1249.58,937.03 1248.66,934.04 1248.35,930.26"/>
      </lanes>
   </edge>
   <edge id=":04_2" function="internal">
      <lanes>
         <lane id=":04_2_0" depart="0" maxspeed="13.89" length="6.36" shape="1251.65,930.26 1251.91,931.49 1252.70,932.62 1254.01,933.65 1255.84,934.59"/>
      </lanes>
   </edge>
   <edge id=":04_3" function="internal">
      <lanes>
         <lane id=":04_3_0" depart="0" maxspeed="13.89" length="12.20" shape="1251.65,930.26 1251.34,934.04 1250.42,937.03 1248.88,939.24 1246.72,940.67"/>
      </lanes>
   </edge>
   <edge id=":04_4" function="internal">
      <lanes>
         <lane id=":04_4_0" depart="0" maxspeed="13.89" length="6.36" shape="1244.16,934.59 1245.99,933.65 1247.30,932.62 1248.09,931.49 1248.35,930.26"/>
      </lanes>
   </edge>
   <edge id=":04_5" function="internal">
      <lanes>
         <lane id=":04_5_0" depart="0" maxspeed="13.89" length="12.00" shape="1244.16,934.59 1247.08,933.66 1250.00,933.36 1252.92,933.66 1255.84,934.59"/>
      </lanes>
   </edge>
   <edge id=":04_6" function="internal">
      <lanes>
         <lane id=":04_6_0" depart="0" maxspeed="13.89" length="9.37" shape="1245.44,937.63 1247.72,936.91 1250.00,936.67 1252.28,936.91 1254.56,937.63"/>
      </lanes>
   </edge>
   <edge id=":05_0" function="internal">
      <lanes>
         <lane id=":05_0_0" depart="0" maxspeed="13.89" length="6.36" shape="1248.35,1569.74 1248.09,1568.51 1247.30,1567.38 1245.99,1566.35 1244.16,1565.41"/>
      </lanes>
   </edge>
   <edge id=":05_1" function="internal">
      <lanes>
         <lane id=":05_1_0" depart="0" maxspeed="13.89" length="12.20" shape="1248.35,1569.74 1248.66,1565.96 1249.58,1562.97 1251.12,1560.76 1253.28,1559.33"/>
      </lanes>
   </edge>
   <edge id=":05_2" function="internal">
      <lanes>
         <lane id=":05_2_0" depart="0" maxspeed="13.89" length="6.36" shape="1255.84,1565.41 1254.01,1566.35 1252.70,1567.38 1251.91,1568.51 1251.65,1569.74"/>
      </lanes>
   </edge>
   <edge id=":05_3" function="internal">
      <lanes>
         <lane id=":05_3_0" depart="0" maxspeed="13.89" length="12.00" shape="1255.84,1565.41 1252.92,1566.34 1250.00,1566.64 1247.08,1566.34 1244.16,1565.41"/>
      </lanes>
   </edge>
   <edge id=":05_4" function="internal">
      <lanes>
         <lane id=":05_4_0" depart="0" maxspeed="13.89" length="9.37" shape="1254.56,1562.37 1252.28,1563.09 1250.00,1563.33 1247.72,1563.09 1245.44,1562.37"/>
      </lanes>
   </edge>
   <edge id=":05_5" function="internal">
      <lanes>
         <lane id=":05_5_0" depart="0" maxspeed="13.89" length="4.11" shape="1248.00,1556.29 1249.00,1556.60 1250.00,1556.71 1251.00,1556.60 1252.00,1556.29"/>
      </lanes>
   </edge>
   <edge id=":05_6" function="internal">
      <lanes>
         <lane id=":05_6_0" depart="0" maxspeed="13.89" length="12.20" shape="1246.72,1559.33 1248.88,1560.76 1250.42,1562.97 1251.34,1565.96 1251.65,1569.74"/>
      </lanes>
   </edge>
   <edge id=":06_0" function="internal">
      <lanes>
         <lane id=":06_0_0" depart="0" maxspeed="13.89" length="9.63" shape="1248.35,1882.24 1247.89,1880.93 1246.50,1879.55 1244.19,1878.11 1240.96,1876.61"/>
      </lanes>
   </edge>
   <edge id=":06_1" function="internal">
      <lanes>
         <lane id=":06_1_0" depart="0" maxspeed="13.89" length="17.18" shape="1248.35,1882.24 1248.35,1878.15 1248.35,1873.65 1248.35,1869.15 1248.35,1865.06"/>
      </lanes>
   </edge>
   <edge id=":06_2" function="internal">
      <lanes>
         <lane id=":06_2_0" depart="0" maxspeed="13.89" length="3.91" shape="1248.35,1882.24 1250.38,1875.15"/>
      </lanes>
   </edge>
   <edge id=":06_14" function="internal">
      <lanes>
         <lane id=":06_14_0" depart="0" maxspeed="13.89" length="11.32" shape="1250.38,1875.15 1250.39,1875.14 1252.94,1872.52 1256.51,1870.52"/>
      </lanes>
   </edge>
   <edge id=":06_3" function="internal">
      <lanes>
         <lane id=":06_3_0" depart="0" maxspeed="13.89" length="9.63" shape="1259.04,1876.61 1255.81,1878.11 1253.50,1879.55 1252.11,1880.93 1251.65,1882.24"/>
      </lanes>
   </edge>
   <edge id=":06_4" function="internal">
      <lanes>
         <lane id=":06_4_0" depart="0" maxspeed="13.89" length="18.55" shape="1259.04,1876.61 1254.52,1878.02 1250.00,1878.49 1245.48,1878.02 1240.96,1876.61"/>
      </lanes>
   </edge>
   <edge id=":06_5" function="internal">
      <lanes>
         <lane id=":06_5_0" depart="0" maxspeed="13.89" length="15.96" shape="1257.77,1873.56 1253.89,1874.77 1250.00,1875.18 1246.11,1874.77 1242.23,1873.56"/>
      </lanes>
   </edge>
   <edge id=":06_6" function="internal">
      <lanes>
         <lane id=":06_6_0" depart="0" maxspeed="13.89" length="9.14" shape="1257.77,1873.56 1253.65,1874.50 1249.81,1871.79"/>
      </lanes>
   </edge>
   <edge id=":06_15" function="internal">
      <lanes>
         <lane id=":06_15_0" depart="0" maxspeed="13.89" length="7.05" shape="1249.81,1871.79 1248.94,1870.25 1248.35,1865.06"/>
      </lanes>
   </edge>
   <edge id=":06_7" function="internal">
      <lanes>
         <lane id=":06_7_0" depart="0" maxspeed="13.89" length="5.56" shape="1251.65,1865.06 1251.87,1866.67 1252.55,1867.61 1253.67,1867.88 1255.25,1867.47"/>
      </lanes>
   </edge>
   <edge id=":06_8" function="internal">
      <lanes>
         <lane id=":06_8_0" depart="0" maxspeed="13.89" length="17.18" shape="1251.65,1865.06 1251.65,1869.15 1251.65,1873.65 1251.65,1878.15 1251.65,1882.24"/>
      </lanes>
   </edge>
   <edge id=":06_9" function="internal">
      <lanes>
         <lane id=":06_9_0" depart="0" maxspeed="13.89" length="3.38" shape="1251.65,1865.06 1251.44,1866.89"/>
      </lanes>
   </edge>
   <edge id=":06_16" function="internal">
      <lanes>
         <lane id=":06_16_0" depart="0" maxspeed="13.89" length="12.82" shape="1251.44,1866.89 1251.06,1870.25 1249.29,1873.39 1246.35,1874.50 1242.23,1873.56"/>
      </lanes>
   </edge>
   <edge id=":06_10" function="internal">
      <lanes>
         <lane id=":06_10_0" depart="0" maxspeed="13.89" length="5.56" shape="1244.75,1867.47 1246.33,1867.88 1247.45,1867.61 1248.13,1866.67 1248.35,1865.06"/>
      </lanes>
   </edge>
   <edge id=":06_11" function="internal">
      <lanes>
         <lane id=":06_11_0" depart="0" maxspeed="13.89" length="10.77" shape="1244.75,1867.47 1247.38,1868.28 1250.00,1868.55 1252.62,1868.28 1255.25,1867.47"/>
      </lanes>
   </edge>
   <edge id=":06_12" function="internal">
      <lanes>
         <lane id=":06_12_0" depart="0" maxspeed="13.89" length="13.36" shape="1243.49,1870.52 1246.74,1871.53 1250.00,1871.86 1253.26,1871.53 1256.51,1870.52"/>
      </lanes>
   </edge>
   <edge id=":06_13" function="internal">
      <lanes>
         <lane id=":06_13_0" depart="0" maxspeed="13.89" length="7.74" shape="1243.49,1870.52 1249.61,1875.14"/>
      </lanes>
   </edge>
   <edge id=":06_17" function="internal">
      <lanes>
         <lane id=":06_17_0" depart="0" maxspeed="13.89" length="7.49" shape="1249.61,1875.14 1251.14,1878.38 1251.65,1882.24"/>
      </lanes>
   </edge>
   <edge id=":07_0" function="internal">
      <lanes>
         <lane id=":07_0_0" depart="0" maxspeed="13.89" length="9.63" shape="1248.35,2194.74 1247.89,2193.43 1246.50,2192.05 1244.19,2190.61 1240.96,2189.11"/>
      </lanes>
   </edge>
   <edge id=":07_1" function="internal">
      <lanes>
         <lane id=":07_1_0" depart="0" maxspeed="13.89" length="17.18" shape="1248.35,2194.74 1248.35,2190.65 1248.35,2186.15 1248.35,2181.65 1248.35,2177.56"/>
      </lanes>
   </edge>
   <edge id=":07_2" function="internal">
      <lanes>
         <lane id=":07_2_0" depart="0" maxspeed="13.89" length="15.23" shape="1248.35,2194.74 1248.86,2190.88 1250.39,2187.64 1252.94,2185.02 1256.51,2183.02"/>
      </lanes>
   </edge>
   <edge id=":07_3" function="internal">
      <lanes>
         <lane id=":07_3_0" depart="0" maxspeed="13.89" length="9.63" shape="1259.04,2189.11 1255.81,2190.61 1253.50,2192.05 1252.11,2193.43 1251.65,2194.74"/>
      </lanes>
   </edge>
   <edge id=":07_4" function="internal">
      <lanes>
         <lane id=":07_4_0" depart="0" maxspeed="13.89" length="18.55" shape="1259.04,2189.11 1254.52,2190.52 1250.00,2190.99 1245.48,2190.52 1240.96,2189.11"/>
      </lanes>
   </edge>
   <edge id=":07_5" function="internal">
      <lanes>
         <lane id=":07_5_0" depart="0" maxspeed="13.89" length="15.96" shape="1257.77,2186.07 1253.89,2187.27 1250.00,2187.68 1246.11,2187.27 1242.23,2186.07"/>
      </lanes>
   </edge>
   <edge id=":07_6" function="internal">
      <lanes>
         <lane id=":07_6_0" depart="0" maxspeed="13.89" length="16.20" shape="1257.77,2186.07 1253.65,2187.00 1250.71,2185.89 1248.94,2182.75 1248.35,2177.56"/>
      </lanes>
   </edge>
   <edge id=":07_7" function="internal">
      <lanes>
         <lane id=":07_7_0" depart="0" maxspeed="13.89" length="5.56" shape="1251.65,2177.56 1251.87,2179.17 1252.55,2180.11 1253.67,2180.38 1255.25,2179.97"/>
      </lanes>
   </edge>
   <edge id=":07_8" function="internal">
      <lanes>
         <lane id=":07_8_0" depart="0" maxspeed="13.89" length="17.18" shape="1251.65,2177.56 1251.65,2181.65 1251.65,2186.15 1251.65,2190.65 1251.65,2194.74"/>
      </lanes>
   </edge>
   <edge id=":07_9" function="internal">
      <lanes>
         <lane id=":07_9_0" depart="0" maxspeed="13.89" length="16.20" shape="1251.65,2177.56 1251.06,2182.75 1249.29,2185.89 1246.35,2187.00 1242.23,2186.07"/>
      </lanes>
   </edge>
   <edge id=":07_10" function="internal">
      <lanes>
         <lane id=":07_10_0" depart="0" maxspeed="13.89" length="5.56" shape="1244.75,2179.97 1246.33,2180.38 1247.45,2180.11 1248.13,2179.17 1248.35,2177.56"/>
      </lanes>
   </edge>
   <edge id=":07_11" function="internal">
      <lanes>
         <lane id=":07_11_0" depart="0" maxspeed="13.89" length="10.77" shape="1244.75,2179.97 1247.38,2180.78 1250.00,2181.06 1252.62,2180.78 1255.25,2179.97"/>
      </lanes>
   </edge>
   <edge id=":07_12" function="internal">
      <lanes>
         <lane id=":07_12_0" depart="0" maxspeed="13.89" length="13.36" shape="1243.49,2183.02 1246.74,2184.03 1250.00,2184.37 1253.26,2184.03 1256.51,2183.02"/>
      </lanes>
   </edge>
   <edge id=":07_13" function="internal">
      <lanes>
         <lane id=":07_13_0" depart="0" maxspeed="13.89" length="15.23" shape="1243.49,2183.02 1247.06,2185.02 1249.61,2187.64 1251.14,2190.88 1251.65,2194.74"/>
      </lanes>
   </edge>
   <edge id=":08_0" function="internal">
      <lanes>
         <lane id=":08_0_0" depart="0" maxspeed="13.89" length="18.89" shape="1259.04,2501.62 1253.86,2503.56 1250.00,2504.21 1246.14,2503.56 1240.96,2501.62"/>
      </lanes>
   </edge>
   <edge id=":08_1" function="internal">
      <lanes>
         <lane id=":08_1_0" depart="0" maxspeed="13.89" length="16.20" shape="1257.77,2498.57 1253.65,2499.50 1250.71,2498.39 1248.94,2495.25 1248.35,2490.06"/>
      </lanes>
   </edge>
   <edge id=":08_2" function="internal">
      <lanes>
         <lane id=":08_2_0" depart="0" maxspeed="13.89" length="5.56" shape="1251.65,2490.06 1251.87,2491.67 1252.55,2492.61 1253.67,2492.88 1255.25,2492.47"/>
      </lanes>
   </edge>
   <edge id=":08_3" function="internal">
      <lanes>
         <lane id=":08_3_0" depart="0" maxspeed="13.89" length="16.20" shape="1251.65,2490.06 1251.06,2495.25 1249.29,2498.39 1246.35,2499.50 1242.23,2498.57"/>
      </lanes>
   </edge>
   <edge id=":08_4" function="internal">
      <lanes>
         <lane id=":08_4_0" depart="0" maxspeed="13.89" length="5.56" shape="1244.75,2492.47 1246.33,2492.88 1247.45,2492.61 1248.13,2491.67 1248.35,2490.06"/>
      </lanes>
   </edge>
   <edge id=":08_5" function="internal">
      <lanes>
         <lane id=":08_5_0" depart="0" maxspeed="13.89" length="10.97" shape="1244.75,2492.47 1247.76,2493.60 1250.00,2493.97 1252.24,2493.60 1255.25,2492.47"/>
      </lanes>
   </edge>
   <edge id=":08_6" function="internal">
      <lanes>
         <lane id=":08_6_0" depart="0" maxspeed="13.89" length="13.61" shape="1243.49,2495.52 1247.22,2496.92 1250.00,2497.39 1252.78,2496.92 1256.51,2495.52"/>
      </lanes>
   </edge>
   <edge id=":09_0" function="internal">
      <lanes>
         <lane id=":09_0_0" depart="0" maxspeed="13.89" length="5.56" shape="371.96,374.29 370.66,373.31 369.52,373.13 368.54,373.73 367.71,375.14"/>
      </lanes>
   </edge>
   <edge id=":09_1" function="internal">
      <lanes>
         <lane id=":09_1_0" depart="0" maxspeed="13.89" length="16.20" shape="371.96,374.29 368.71,370.21 367.74,366.74 369.04,363.87 372.61,361.62"/>
      </lanes>
   </edge>
   <edge id=":09_2" function="internal">
      <lanes>
         <lane id=":09_2_0" depart="0" maxspeed="13.89" length="5.56" shape="375.14,367.71 373.73,368.54 373.13,369.52 373.31,370.66 374.29,371.96"/>
      </lanes>
   </edge>
   <edge id=":09_3" function="internal">
      <lanes>
         <lane id=":09_3_0" depart="0" maxspeed="13.89" length="10.77" shape="375.14,367.71 372.70,368.99 370.66,370.66 368.99,372.70 367.71,375.14"/>
      </lanes>
   </edge>
   <edge id=":09_4" function="internal">
      <lanes>
         <lane id=":09_4_0" depart="0" maxspeed="13.89" length="13.36" shape="373.87,364.67 370.86,366.25 368.32,368.32 366.25,370.86 364.67,373.87"/>
      </lanes>
   </edge>
   <edge id=":09_5" function="internal">
      <lanes>
         <lane id=":09_5_0" depart="0" maxspeed="13.89" length="18.55" shape="358.57,371.35 360.77,367.16 363.63,363.63 367.16,360.77 371.35,358.57"/>
      </lanes>
   </edge>
   <edge id=":09_6" function="internal">
      <lanes>
         <lane id=":09_6_0" depart="0" maxspeed="13.89" length="16.20" shape="361.62,372.61 363.87,369.04 366.74,367.74 370.21,368.71 374.29,371.96"/>
      </lanes>
   </edge>
   <edge id=":10_0" function="internal">
      <lanes>
         <lane id=":10_0_0" depart="0" maxspeed="13.89" length="5.56" shape="592.96,595.29 591.66,594.31 590.52,594.13 589.54,594.73 588.71,596.14"/>
      </lanes>
   </edge>
   <edge id=":10_1" function="internal">
      <lanes>
         <lane id=":10_1_0" depart="0" maxspeed="13.89" length="17.18" shape="592.96,595.29 590.07,592.40 586.89,589.22 583.70,586.04 580.81,583.14"/>
      </lanes>
   </edge>
   <edge id=":10_2" function="internal">
      <lanes>
         <lane id=":10_2_0" depart="0" maxspeed="13.89" length="3.73" shape="592.96,595.29 592.03,594.13"/>
      </lanes>
   </edge>
   <edge id=":10_14" function="internal">
      <lanes>
         <lane id=":10_14_0" depart="0" maxspeed="13.89" length="12.47" shape="592.03,594.13 589.71,591.21 588.74,587.74 590.04,584.87 593.61,582.62"/>
      </lanes>
   </edge>
   <edge id=":10_3" function="internal">
      <lanes>
         <lane id=":10_3_0" depart="0" maxspeed="13.89" length="5.56" shape="596.14,588.71 594.73,589.54 594.13,590.52 594.31,591.66 595.29,592.96"/>
      </lanes>
   </edge>
   <edge id=":10_4" function="internal">
      <lanes>
         <lane id=":10_4_0" depart="0" maxspeed="13.89" length="10.97" shape="596.14,588.71 593.21,590.04 591.36,591.36 590.04,593.21 588.71,596.14"/>
      </lanes>
   </edge>
   <edge id=":10_5" function="internal">
      <lanes>
         <lane id=":10_5_0" depart="0" maxspeed="13.89" length="13.61" shape="594.87,585.67 591.25,587.31 588.95,588.95 587.31,591.25 585.67,594.87"/>
      </lanes>
   </edge>
   <edge id=":10_6" function="internal">
      <lanes>
         <lane id=":10_6_0" depart="0" maxspeed="13.89" length="8.46" shape="594.87,585.67 590.93,586.78 584.57,585.76"/>
      </lanes>
   </edge>
   <edge id=":10_15" function="internal">
      <lanes>
         <lane id=":10_15_0" depart="0" maxspeed="13.89" length="6.77" shape="584.57,585.76 583.90,585.52 580.81,583.14"/>
      </lanes>
   </edge>
   <edge id=":10_7" function="internal">
      <lanes>
         <lane id=":10_7_0" depart="0" maxspeed="13.89" length="9.63" shape="583.14,580.81 584.40,581.41 586.35,581.41 589.00,580.79 592.35,579.57"/>
      </lanes>
   </edge>
   <edge id=":10_8" function="internal">
      <lanes>
         <lane id=":10_8_0" depart="0" maxspeed="13.89" length="17.18" shape="583.14,580.81 586.04,583.70 589.22,586.89 592.40,590.07 595.29,592.96"/>
      </lanes>
   </edge>
   <edge id=":10_9" function="internal">
      <lanes>
         <lane id=":10_9_0" depart="0" maxspeed="13.89" length="3.27" shape="583.14,580.81 583.53,581.31"/>
      </lanes>
   </edge>
   <edge id=":10_16" function="internal">
      <lanes>
         <lane id=":10_16_0" depart="0" maxspeed="13.89" length="11.96" shape="583.53,581.31 585.52,583.90 586.73,587.28 586.78,590.93 585.67,594.87"/>
      </lanes>
   </edge>
   <edge id=":10_10" function="internal">
      <lanes>
         <lane id=":10_10_0" depart="0" maxspeed="13.89" length="9.63" shape="579.57,592.35 580.79,589.00 581.41,586.35 581.41,584.40 580.81,583.14"/>
      </lanes>
   </edge>
   <edge id=":10_11" function="internal">
      <lanes>
         <lane id=":10_11_0" depart="0" maxspeed="13.89" length="18.89" shape="579.57,592.35 581.85,587.32 584.12,584.12 587.32,581.85 592.35,579.57"/>
      </lanes>
   </edge>
   <edge id=":10_12" function="internal">
      <lanes>
         <lane id=":10_12_0" depart="0" maxspeed="13.89" length="16.25" shape="582.62,593.61 584.58,589.28 586.54,586.54 589.28,584.58 593.61,582.62"/>
      </lanes>
   </edge>
   <edge id=":10_13" function="internal">
      <lanes>
         <lane id=":10_13_0" depart="0" maxspeed="13.89" length="8.55" shape="582.62,593.61 584.87,590.04 590.08,589.39"/>
      </lanes>
   </edge>
   <edge id=":10_17" function="internal">
      <lanes>
         <lane id=":10_17_0" depart="0" maxspeed="13.89" length="7.64" shape="590.08,589.39 591.21,589.71 595.29,592.96"/>
      </lanes>
   </edge>
   <edge id=":11_0" function="internal">
      <lanes>
         <lane id=":11_0_0" depart="0" maxspeed="13.89" length="5.56" shape="813.96,816.29 812.66,815.31 811.52,815.13 810.54,815.73 809.71,817.14"/>
      </lanes>
   </edge>
   <edge id=":11_1" function="internal">
      <lanes>
         <lane id=":11_1_0" depart="0" maxspeed="13.89" length="17.18" shape="813.96,816.29 811.07,813.40 807.88,810.22 804.70,807.04 801.81,804.14"/>
      </lanes>
   </edge>
   <edge id=":11_2" function="internal">
      <lanes>
         <lane id=":11_2_0" depart="0" maxspeed="13.89" length="16.20" shape="813.96,816.29 810.71,812.21 809.74,808.74 811.04,805.87 814.61,803.62"/>
      </lanes>
   </edge>
   <edge id=":11_3" function="internal">
      <lanes>
         <lane id=":11_3_0" depart="0" maxspeed="13.89" length="5.56" shape="817.14,809.71 815.73,810.54 815.13,811.52 815.31,812.66 816.29,813.96"/>
      </lanes>
   </edge>
   <edge id=":11_4" function="internal">
      <lanes>
         <lane id=":11_4_0" depart="0" maxspeed="13.89" length="10.97" shape="817.14,809.71 814.21,811.04 812.36,812.36 811.04,814.21 809.71,817.14"/>
      </lanes>
   </edge>
   <edge id=":11_5" function="internal">
      <lanes>
         <lane id=":11_5_0" depart="0" maxspeed="13.89" length="13.61" shape="815.87,806.67 812.25,808.31 809.95,809.95 808.31,812.25 806.67,815.87"/>
      </lanes>
   </edge>
   <edge id=":11_6" function="internal">
      <lanes>
         <lane id=":11_6_0" depart="0" maxspeed="13.89" length="15.23" shape="815.87,806.67 811.93,807.78 808.28,807.73 804.90,806.52 801.81,804.14"/>
      </lanes>
   </edge>
   <edge id=":11_7" function="internal">
      <lanes>
         <lane id=":11_7_0" depart="0" maxspeed="13.89" length="9.63" shape="804.14,801.81 805.40,802.41 807.35,802.41 810.00,801.79 813.35,800.57"/>
      </lanes>
   </edge>
   <edge id=":11_8" function="internal">
      <lanes>
         <lane id=":11_8_0" depart="0" maxspeed="13.89" length="17.18" shape="804.14,801.81 807.04,804.70 810.22,807.88 813.40,811.07 816.29,813.96"/>
      </lanes>
   </edge>
   <edge id=":11_9" function="internal">