<nodes>
    <node id="01" x="0.0" y="0.0" />
    <node id="02" x="500.0" y="0.0" />
    <node id="03" x="1000.0" y="0.0" />
    <node id="04" x="1500.0" y="0.0" />
    <node id="05" x="2000.0" y="0.0" />
    <node id="06" x="2500.0" y="0.0" />
    <node id="07" x="0.0" y="500.0" />
    <node id="08" x="500.0" y="500.0" />
    <node id="09" x="1000.0" y="500.0" type="traffic_light"/>
    <node id="10" x="1500.0" y="500.0" type="traffic_light"/>
    <node id="11" x="2000.0" y="500.0" />
    <node id="12" x="2500.0" y="500.0" />
    <node id="13" x="0.0" y="1000.0" />
    <node id="14" x="500.0" y="1000.0" type="traffic_light"/>
    <node id="15" x="1000.0" y="1000.0" />
    <node id="16" x="1500.0" y="1000.0" />
    <node id="17" x="2000.0" y="1000.0" type="traffic_light"/>
    <node id="18" x="2500.0" y="1000.0" />
    <node id="19" x="0.0" y="1500.0" />
    <node id="20" x="500.0" y="1500.0" type="traffic_light"/>
    <node id="21" x="1000.0" y="1500.0" />
    <node id="22" x="1500.0" y="1500.0" />
    <node id="23" x="2000.0" y="1500.0" type="traffic_light"/>
    <node id="24" x="2500.0" y="1500.0" />
    <node id="25" x="0.0" y="2000.0" />
    <node id="26" x="500.0" y="2000.0" />
    <node id="27" x="1000.0" y="2000.0" type="traffic_light"/>
    <node id="28" x="1500.0" y="2000.0" type="traffic_light"/>
    <node id="29" x="2000.0" y="2000.0" />
    <node id="30" x="2500.0" y="2000.0" />
    <node id="31" x="0.0" y="2500.0" />
    <node id="32" x="500.0" y="2500.0" />
    <node id="33" x="1000.0" y="2500.0" />
    <node id="34" x="1500.0" y="2500.0" />
    <node id="35" x="2000.0" y="2500.0" />
    <node id="36" x="2500.0" y="2500.0" />
</nodes>

